version 2
run veins-0-20240421-12:25:06-25431
attr configname veins
attr datetime 20240421-12:25:06
attr experiment veins
attr inifile omnetpp.ini
attr iterationvars ""
attr iterationvarsf ""
attr measurement ""
attr network artery.veins.World
attr processid 25431
attr repetition 0
attr replication #0
attr resultdir results
attr runnumber 0
attr seedset 0
param *.playgroundSizeX 4000m
param *.playgroundSizeY 4000m
param *.playgroundSizeZ 50m
param *.connectionManager.maxInterfDist 1500m
param *.connectionManager.sendDirect true
param *.connectionManager.coreDebug false
param *.node[*].nic.mac1609_4.txPower 200mW
param *.node[*].nic.phy80211p.decider "xmldoc(\"config.xml\")"
param *.node[*].nic.phy80211p.analogueModels "xmldoc(\"config.xml\")"
param *.node[*].appl.middleware.updateInterval 0.1s
param *.node[*].appl.middleware.datetime "\"2013-06-01 12:35:00\""
param *.node[*].appl.middleware.services "xmldoc(\"services.xml\")"
param *.node[*].appl.middleware.DenService.useCases "xmldoc(\"den-use-cases.xml\")"
param *.withStoryboard true
param *.storyboard.python "\"demo\""
param *.traci.launcher.additionalOptions "\"--log-buffered --log-file=sumo_warnings.log\""
param *.traci.core.version -1
param *.traci.launcher.typename "\"PosixLauncher\""
param *.traci.launcher.sumocfg "\"Slott.sumo.cfg\""
param *.traci.launcher.sumo "\"sumo-gui\""
param *.node[*].wlan[*].typename "\"VanetNic\""
param *.node[*].wlan[*].radio.channelNumber 180
param *.node[*].wlan[*].radio.carrierFrequency "5.9 GHz"
param *.node[*].wlan[*].radio.transmitter.power "200 mW"
param *.node[*].middleware.updateInterval 0.1s
param *.node[*].middleware.datetime "\"2013-06-01 12:35:00\""
param *.node[*].middleware.services "xmldoc(\"services.xml\")"
param *.node[*].middleware.DenService.useCases "xmldoc(\"den-use-cases.xml\")"

scalar World.traci.launcher port 60383
scalar World.node[3].appl.middleware.DenService transmission:count 148
attr source DenmSent
scalar World.node[3].appl.middleware.DenService reception:count 0
attr source DenmReceived
scalar World.node[3].nic.phy80211p busyTime 0
scalar World.node[3].nic.mac1609_4 ReceivedUnicastPackets 0
scalar World.node[3].nic.mac1609_4 ReceivedBroadcasts 0
scalar World.node[3].nic.mac1609_4 SentPackets 1
scalar World.node[3].nic.mac1609_4 SentAcknowledgements 0
scalar World.node[3].nic.mac1609_4 RetriesExceeded 0
scalar World.node[3].nic.mac1609_4 SNIRLostPackets 0
scalar World.node[3].nic.mac1609_4 RXTXLostPackets 80
scalar World.node[3].nic.mac1609_4 TotalLostPackets 80
scalar World.node[3].nic.mac1609_4 DroppedPacketsInMac 0
scalar World.node[3].nic.mac1609_4 TooLittleTime 0
scalar World.node[3].nic.mac1609_4 TimesIntoBackoff 1
scalar World.node[3].nic.mac1609_4 SlotsBackoff 4
scalar World.node[3].nic.mac1609_4 NumInternalContention 0
scalar World.node[3].nic.mac1609_4 totalBusyTime 0
scalar World.node[3].nic.mac1609_4 retriesExceeded:count 0
attr source org_car2x_veins_modules_mac_sigRetriesExceeded
scalar World.node[3].nic.mac1609_4 sentAcks:count 0
attr source org_car2x_veins_modules_mac_sigSentAck
scalar World.node[3].nic.mac1609_4 sentPackets:count 1
attr source org_car2x_veins_modules_mac_sigSentPacket
scalar World.node[3].nic.mac1609_4 collisions:count 0
attr source org_car2x_veins_modules_mac_sigCollision
scalar World.node[3].nic.mac1609_4 channelBusy:timeavg 0.99405630522088
attr source org_car2x_veins_modules_mac_sigChannelBusy
scalar World.node[9].appl.middleware.DenService transmission:count 196
attr source DenmSent
scalar World.node[9].appl.middleware.DenService reception:count 0
attr source DenmReceived
scalar World.node[9].nic.phy80211p busyTime 0
scalar World.node[9].nic.mac1609_4 ReceivedUnicastPackets 0
scalar World.node[9].nic.mac1609_4 ReceivedBroadcasts 0
scalar World.node[9].nic.mac1609_4 SentPackets 1
scalar World.node[9].nic.mac1609_4 SentAcknowledgements 0
scalar World.node[9].nic.mac1609_4 RetriesExceeded 0
scalar World.node[9].nic.mac1609_4 SNIRLostPackets 0
scalar World.node[9].nic.mac1609_4 RXTXLostPackets 414
scalar World.node[9].nic.mac1609_4 TotalLostPackets 414
scalar World.node[9].nic.mac1609_4 DroppedPacketsInMac 0
scalar World.node[9].nic.mac1609_4 TooLittleTime 0
scalar World.node[9].nic.mac1609_4 TimesIntoBackoff 1
scalar World.node[9].nic.mac1609_4 SlotsBackoff 4
scalar World.node[9].nic.mac1609_4 NumInternalContention 0
scalar World.node[9].nic.mac1609_4 totalBusyTime 0
scalar World.node[9].nic.mac1609_4 retriesExceeded:count 0
attr source org_car2x_veins_modules_mac_sigRetriesExceeded
scalar World.node[9].nic.mac1609_4 sentAcks:count 0
attr source org_car2x_veins_modules_mac_sigSentAck
scalar World.node[9].nic.mac1609_4 sentPackets:count 1
attr source org_car2x_veins_modules_mac_sigSentPacket
scalar World.node[9].nic.mac1609_4 collisions:count 0
attr source org_car2x_veins_modules_mac_sigCollision
scalar World.node[9].nic.mac1609_4 channelBusy:timeavg 0.99503835016835
attr source org_car2x_veins_modules_mac_sigChannelBusy
scalar World.node[18].appl.middleware.DenService transmission:count 73
attr source DenmSent
scalar World.node[18].appl.middleware.DenService reception:count 0
attr source DenmReceived
scalar World.node[18].nic.phy80211p busyTime 2.4367816091954e-05
scalar World.node[18].nic.mac1609_4 ReceivedUnicastPackets 0
scalar World.node[18].nic.mac1609_4 ReceivedBroadcasts 0
scalar World.node[18].nic.mac1609_4 SentPackets 1
scalar World.node[18].nic.mac1609_4 SentAcknowledgements 0
scalar World.node[18].nic.mac1609_4 RetriesExceeded 0
scalar World.node[18].nic.mac1609_4 SNIRLostPackets 0
scalar World.node[18].nic.mac1609_4 RXTXLostPackets 493
scalar World.node[18].nic.mac1609_4 TotalLostPackets 493
scalar World.node[18].nic.mac1609_4 DroppedPacketsInMac 0
scalar World.node[18].nic.mac1609_4 TooLittleTime 0
scalar World.node[18].nic.mac1609_4 TimesIntoBackoff 1
scalar World.node[18].nic.mac1609_4 SlotsBackoff 5
scalar World.node[18].nic.mac1609_4 NumInternalContention 0
scalar World.node[18].nic.mac1609_4 totalBusyTime 0.000424
scalar World.node[18].nic.mac1609_4 retriesExceeded:count 0
attr source org_car2x_veins_modules_mac_sigRetriesExceeded
scalar World.node[18].nic.mac1609_4 sentAcks:count 0
attr source org_car2x_veins_modules_mac_sigSentAck
scalar World.node[18].nic.mac1609_4 sentPackets:count 1
attr source org_car2x_veins_modules_mac_sigSentPacket
scalar World.node[18].nic.mac1609_4 collisions:count 0
attr source org_car2x_veins_modules_mac_sigCollision
scalar World.node[18].nic.mac1609_4 channelBusy:timeavg 0.99405196945046
attr source org_car2x_veins_modules_mac_sigChannelBusy
scalar World.node[10].appl.middleware.DenService transmission:count 295
attr source DenmSent
scalar World.node[10].appl.middleware.DenService reception:count 0
attr source DenmReceived
scalar World.node[10].nic.phy80211p busyTime 0
scalar World.node[10].nic.mac1609_4 ReceivedUnicastPackets 0
scalar World.node[10].nic.mac1609_4 ReceivedBroadcasts 0
scalar World.node[10].nic.mac1609_4 SentPackets 1
scalar World.node[10].nic.mac1609_4 SentAcknowledgements 0
scalar World.node[10].nic.mac1609_4 RetriesExceeded 0
scalar World.node[10].nic.mac1609_4 SNIRLostPackets 0
scalar World.node[10].nic.mac1609_4 RXTXLostPackets 891
scalar World.node[10].nic.mac1609_4 TotalLostPackets 891
scalar World.node[10].nic.mac1609_4 DroppedPacketsInMac 0
scalar World.node[10].nic.mac1609_4 TooLittleTime 0
scalar World.node[10].nic.mac1609_4 TimesIntoBackoff 1
scalar World.node[10].nic.mac1609_4 SlotsBackoff 6
scalar World.node[10].nic.mac1609_4 NumInternalContention 0
scalar World.node[10].nic.mac1609_4 totalBusyTime 0
scalar World.node[10].nic.mac1609_4 retriesExceeded:count 0
attr source org_car2x_veins_modules_mac_sigRetriesExceeded
scalar World.node[10].nic.mac1609_4 sentAcks:count 0
attr source org_car2x_veins_modules_mac_sigSentAck
scalar World.node[10].nic.mac1609_4 sentPackets:count 1
attr source org_car2x_veins_modules_mac_sigSentPacket
scalar World.node[10].nic.mac1609_4 collisions:count 0
attr source org_car2x_veins_modules_mac_sigCollision
scalar World.node[10].nic.mac1609_4 channelBusy:timeavg 0.99603911616162
attr source org_car2x_veins_modules_mac_sigChannelBusy
scalar World.node[34].appl.middleware.DenService transmission:count 0
attr source DenmSent
scalar World.node[34].appl.middleware.DenService reception:count 15
attr source DenmReceived
scalar World.node[34].nic.phy80211p busyTime 0.013909189189189
scalar World.node[34].nic.mac1609_4 ReceivedUnicastPackets 0
scalar World.node[34].nic.mac1609_4 ReceivedBroadcasts 266
scalar World.node[34].nic.mac1609_4 SentPackets 88
scalar World.node[34].nic.mac1609_4 SentAcknowledgements 0
scalar World.node[34].nic.mac1609_4 RetriesExceeded 0
scalar World.node[34].nic.mac1609_4 SNIRLostPackets 0
scalar World.node[34].nic.mac1609_4 RXTXLostPackets 0
scalar World.node[34].nic.mac1609_4 TotalLostPackets 0
scalar World.node[34].nic.mac1609_4 DroppedPacketsInMac 0
scalar World.node[34].nic.mac1609_4 TooLittleTime 0
scalar World.node[34].nic.mac1609_4 TimesIntoBackoff 89
scalar World.node[34].nic.mac1609_4 SlotsBackoff 648
scalar World.node[34].nic.mac1609_4 NumInternalContention 0
scalar World.node[34].nic.mac1609_4 totalBusyTime 0.136968
scalar World.node[34].nic.mac1609_4 retriesExceeded:count 0
attr source org_car2x_veins_modules_mac_sigRetriesExceeded
scalar World.node[34].nic.mac1609_4 sentAcks:count 0
attr source org_car2x_veins_modules_mac_sigSentAck
scalar World.node[34].nic.mac1609_4 sentPackets:count 88
attr source org_car2x_veins_modules_mac_sigSentPacket
scalar World.node[34].nic.mac1609_4 collisions:count 0
attr source org_car2x_veins_modules_mac_sigCollision
scalar World.node[34].nic.mac1609_4 channelBusy:timeavg 0.018509189189189
attr source org_car2x_veins_modules_mac_sigChannelBusy
scalar World.node[12].appl.middleware.DenService transmission:count 287
attr source DenmSent
scalar World.node[12].appl.middleware.DenService reception:count 0
attr source DenmReceived
scalar World.node[12].nic.phy80211p busyTime 0
scalar World.node[12].nic.mac1609_4 ReceivedUnicastPackets 0
scalar World.node[12].nic.mac1609_4 ReceivedBroadcasts 0
scalar World.node[12].nic.mac1609_4 SentPackets 1
scalar World.node[12].nic.mac1609_4 SentAcknowledgements 0
scalar World.node[12].nic.mac1609_4 RetriesExceeded 0
scalar World.node[12].nic.mac1609_4 SNIRLostPackets 0
scalar World.node[12].nic.mac1609_4 RXTXLostPackets 1018
scalar World.node[12].nic.mac1609_4 TotalLostPackets 1018
scalar World.node[12].nic.mac1609_4 DroppedPacketsInMac 0
scalar World.node[12].nic.mac1609_4 TooLittleTime 0
scalar World.node[12].nic.mac1609_4 TimesIntoBackoff 1
scalar World.node[12].nic.mac1609_4 SlotsBackoff 2
scalar World.node[12].nic.mac1609_4 NumInternalContention 0
scalar World.node[12].nic.mac1609_4 totalBusyTime 0
scalar World.node[12].nic.mac1609_4 retriesExceeded:count 0
attr source org_car2x_veins_modules_mac_sigRetriesExceeded
scalar World.node[12].nic.mac1609_4 sentAcks:count 0
attr source org_car2x_veins_modules_mac_sigSentAck
scalar World.node[12].nic.mac1609_4 sentPackets:count 1
attr source org_car2x_veins_modules_mac_sigSentPacket
scalar World.node[12].nic.mac1609_4 collisions:count 0
attr source org_car2x_veins_modules_mac_sigCollision
scalar World.node[12].nic.mac1609_4 channelBusy:timeavg 0.99649587628866
attr source org_car2x_veins_modules_mac_sigChannelBusy
scalar World.node[1].appl.middleware.DenService transmission:count 260
attr source DenmSent
scalar World.node[1].appl.middleware.DenService reception:count 0
attr source DenmReceived
scalar World.node[1].nic.phy80211p busyTime 0
scalar World.node[1].nic.mac1609_4 ReceivedUnicastPackets 0
scalar World.node[1].nic.mac1609_4 ReceivedBroadcasts 0
scalar World.node[1].nic.mac1609_4 SentPackets 1
scalar World.node[1].nic.mac1609_4 SentAcknowledgements 0
scalar World.node[1].nic.mac1609_4 RetriesExceeded 0
scalar World.node[1].nic.mac1609_4 SNIRLostPackets 0
scalar World.node[1].nic.mac1609_4 RXTXLostPackets 1092
scalar World.node[1].nic.mac1609_4 TotalLostPackets 1092
scalar World.node[1].nic.mac1609_4 DroppedPacketsInMac 0
scalar World.node[1].nic.mac1609_4 TooLittleTime 0
scalar World.node[1].nic.mac1609_4 TimesIntoBackoff 1
scalar World.node[1].nic.mac1609_4 SlotsBackoff 0
scalar World.node[1].nic.mac1609_4 NumInternalContention 0
scalar World.node[1].nic.mac1609_4 totalBusyTime 0
scalar World.node[1].nic.mac1609_4 retriesExceeded:count 0
attr source org_car2x_veins_modules_mac_sigRetriesExceeded
scalar World.node[1].nic.mac1609_4 sentAcks:count 0
attr source org_car2x_veins_modules_mac_sigSentAck
scalar World.node[1].nic.mac1609_4 sentPackets:count 1
attr source org_car2x_veins_modules_mac_sigSentPacket
scalar World.node[1].nic.mac1609_4 collisions:count 0
attr source org_car2x_veins_modules_mac_sigCollision
scalar World.node[1].nic.mac1609_4 channelBusy:timeavg 0.99747366788321
attr source org_car2x_veins_modules_mac_sigChannelBusy
scalar World.node[5].appl.middleware.DenService transmission:count 60
attr source DenmSent
scalar World.node[5].appl.middleware.DenService reception:count 0
attr source DenmReceived
scalar World.node[5].nic.phy80211p busyTime 0
scalar World.node[5].nic.mac1609_4 ReceivedUnicastPackets 0
scalar World.node[5].nic.mac1609_4 ReceivedBroadcasts 0
scalar World.node[5].nic.mac1609_4 SentPackets 1
scalar World.node[5].nic.mac1609_4 SentAcknowledgements 0
scalar World.node[5].nic.mac1609_4 RetriesExceeded 0
scalar World.node[5].nic.mac1609_4 SNIRLostPackets 0
scalar World.node[5].nic.mac1609_4 RXTXLostPackets 1163
scalar World.node[5].nic.mac1609_4 TotalLostPackets 1163
scalar World.node[5].nic.mac1609_4 DroppedPacketsInMac 0
scalar World.node[5].nic.mac1609_4 TooLittleTime 0
scalar World.node[5].nic.mac1609_4 TimesIntoBackoff 1
scalar World.node[5].nic.mac1609_4 SlotsBackoff 3
scalar World.node[5].nic.mac1609_4 NumInternalContention 0
scalar World.node[5].nic.mac1609_4 totalBusyTime 0
scalar World.node[5].nic.mac1609_4 retriesExceeded:count 0
attr source org_car2x_veins_modules_mac_sigRetriesExceeded
scalar World.node[5].nic.mac1609_4 sentAcks:count 0
attr source org_car2x_veins_modules_mac_sigSentAck
scalar World.node[5].nic.mac1609_4 sentPackets:count 1
attr source org_car2x_veins_modules_mac_sigSentPacket
scalar World.node[5].nic.mac1609_4 collisions:count 0
attr source org_car2x_veins_modules_mac_sigCollision
scalar World.node[5].nic.mac1609_4 channelBusy:timeavg 0.99621429400387
attr source org_car2x_veins_modules_mac_sigChannelBusy
scalar World.node[13].appl.middleware.DenService transmission:count 0
attr source DenmSent
scalar World.node[13].appl.middleware.DenService reception:count 0
attr source DenmReceived
scalar World.node[13].nic.phy80211p busyTime 0
scalar World.node[13].nic.mac1609_4 ReceivedUnicastPackets 0
scalar World.node[13].nic.mac1609_4 ReceivedBroadcasts 0
scalar World.node[13].nic.mac1609_4 SentPackets 1
scalar World.node[13].nic.mac1609_4 SentAcknowledgements 0
scalar World.node[13].nic.mac1609_4 RetriesExceeded 0
scalar World.node[13].nic.mac1609_4 SNIRLostPackets 0
scalar World.node[13].nic.mac1609_4 RXTXLostPackets 1170
scalar World.node[13].nic.mac1609_4 TotalLostPackets 1170
scalar World.node[13].nic.mac1609_4 DroppedPacketsInMac 0
scalar World.node[13].nic.mac1609_4 TooLittleTime 0
scalar World.node[13].nic.mac1609_4 TimesIntoBackoff 0
scalar World.node[13].nic.mac1609_4 SlotsBackoff 0
scalar World.node[13].nic.mac1609_4 NumInternalContention 0
scalar World.node[13].nic.mac1609_4 totalBusyTime 0
scalar World.node[13].nic.mac1609_4 retriesExceeded:count 0
attr source org_car2x_veins_modules_mac_sigRetriesExceeded
scalar World.node[13].nic.mac1609_4 sentAcks:count 0
attr source org_car2x_veins_modules_mac_sigSentAck
scalar World.node[13].nic.mac1609_4 sentPackets:count 1
attr source org_car2x_veins_modules_mac_sigSentPacket
scalar World.node[13].nic.mac1609_4 collisions:count 0
attr source org_car2x_veins_modules_mac_sigCollision
scalar World.node[13].nic.mac1609_4 channelBusy:timeavg 0.99529875894988
attr source org_car2x_veins_modules_mac_sigChannelBusy
scalar World.node[16].appl.middleware.DenService transmission:count 263
attr source DenmSent
scalar World.node[16].appl.middleware.DenService reception:count 43
attr source DenmReceived
scalar World.node[16].nic.phy80211p busyTime 0.0086037623762375
scalar World.node[16].nic.mac1609_4 ReceivedUnicastPackets 0
scalar World.node[16].nic.mac1609_4 ReceivedBroadcasts 889
scalar World.node[16].nic.mac1609_4 SentPackets 472
scalar World.node[16].nic.mac1609_4 SentAcknowledgements 0
scalar World.node[16].nic.mac1609_4 RetriesExceeded 0
scalar World.node[16].nic.mac1609_4 SNIRLostPackets 0
scalar World.node[16].nic.mac1609_4 RXTXLostPackets 0
scalar World.node[16].nic.mac1609_4 TotalLostPackets 0
scalar World.node[16].nic.mac1609_4 DroppedPacketsInMac 0
scalar World.node[16].nic.mac1609_4 TooLittleTime 0
scalar World.node[16].nic.mac1609_4 TimesIntoBackoff 473
scalar World.node[16].nic.mac1609_4 SlotsBackoff 3590
scalar World.node[16].nic.mac1609_4 NumInternalContention 0
scalar World.node[16].nic.mac1609_4 totalBusyTime 0.532736
scalar World.node[16].nic.mac1609_4 retriesExceeded:count 0
attr source org_car2x_veins_modules_mac_sigRetriesExceeded
scalar World.node[16].nic.mac1609_4 sentAcks:count 0
attr source org_car2x_veins_modules_mac_sigSentAck
scalar World.node[16].nic.mac1609_4 sentPackets:count 472
attr source org_car2x_veins_modules_mac_sigSentPacket
scalar World.node[16].nic.mac1609_4 collisions:count 0
attr source org_car2x_veins_modules_mac_sigCollision
scalar World.node[16].nic.mac1609_4 channelBusy:timeavg 0.013186534653465
attr source org_car2x_veins_modules_mac_sigChannelBusy
scalar World.node[6].appl.middleware.DenService transmission:count 310
attr source DenmSent
scalar World.node[6].appl.middleware.DenService reception:count 0
attr source DenmReceived
scalar World.node[6].nic.phy80211p busyTime 0
scalar World.node[6].nic.mac1609_4 ReceivedUnicastPackets 0
scalar World.node[6].nic.mac1609_4 ReceivedBroadcasts 0
scalar World.node[6].nic.mac1609_4 SentPackets 1
scalar World.node[6].nic.mac1609_4 SentAcknowledgements 0
scalar World.node[6].nic.mac1609_4 RetriesExceeded 0
scalar World.node[6].nic.mac1609_4 SNIRLostPackets 0
scalar World.node[6].nic.mac1609_4 RXTXLostPackets 1546
scalar World.node[6].nic.mac1609_4 TotalLostPackets 1546
scalar World.node[6].nic.mac1609_4 DroppedPacketsInMac 0
scalar World.node[6].nic.mac1609_4 TooLittleTime 0
scalar World.node[6].nic.mac1609_4 TimesIntoBackoff 1
scalar World.node[6].nic.mac1609_4 SlotsBackoff 6
scalar World.node[6].nic.mac1609_4 NumInternalContention 0
scalar World.node[6].nic.mac1609_4 totalBusyTime 0
scalar World.node[6].nic.mac1609_4 retriesExceeded:count 0
attr source org_car2x_veins_modules_mac_sigRetriesExceeded
scalar World.node[6].nic.mac1609_4 sentAcks:count 0
attr source org_car2x_veins_modules_mac_sigSentAck
scalar World.node[6].nic.mac1609_4 sentPackets:count 1
attr source org_car2x_veins_modules_mac_sigSentPacket
scalar World.node[6].nic.mac1609_4 collisions:count 0
attr source org_car2x_veins_modules_mac_sigCollision
scalar World.node[6].nic.mac1609_4 channelBusy:timeavg 0.99764974481659
attr source org_car2x_veins_modules_mac_sigChannelBusy
scalar World.node[28].appl.middleware.DenService transmission:count 271
attr source DenmSent
scalar World.node[28].appl.middleware.DenService reception:count 0
attr source DenmReceived
scalar World.node[28].nic.phy80211p busyTime 3.4193548387097e-05
scalar World.node[28].nic.mac1609_4 ReceivedUnicastPackets 0
scalar World.node[28].nic.mac1609_4 ReceivedBroadcasts 0
scalar World.node[28].nic.mac1609_4 SentPackets 1
scalar World.node[28].nic.mac1609_4 SentAcknowledgements 0
scalar World.node[28].nic.mac1609_4 RetriesExceeded 0
scalar World.node[28].nic.mac1609_4 SNIRLostPackets 0
scalar World.node[28].nic.mac1609_4 RXTXLostPackets 1378
scalar World.node[28].nic.mac1609_4 TotalLostPackets 1378
scalar World.node[28].nic.mac1609_4 DroppedPacketsInMac 0
scalar World.node[28].nic.mac1609_4 TooLittleTime 0
scalar World.node[28].nic.mac1609_4 TimesIntoBackoff 1
scalar World.node[28].nic.mac1609_4 SlotsBackoff 5
scalar World.node[28].nic.mac1609_4 NumInternalContention 0
scalar World.node[28].nic.mac1609_4 totalBusyTime 0.001272
scalar World.node[28].nic.mac1609_4 retriesExceeded:count 0
attr source org_car2x_veins_modules_mac_sigRetriesExceeded
scalar World.node[28].nic.mac1609_4 sentAcks:count 0
attr source org_car2x_veins_modules_mac_sigSentAck
scalar World.node[28].nic.mac1609_4 sentPackets:count 1
attr source org_car2x_veins_modules_mac_sigSentPacket
scalar World.node[28].nic.mac1609_4 collisions:count 0
attr source org_car2x_veins_modules_mac_sigCollision
scalar World.node[28].nic.mac1609_4 channelBusy:timeavg 0.99719287480659
attr source org_car2x_veins_modules_mac_sigChannelBusy
scalar World.node[45].appl.middleware.DenService transmission:count 88
attr source DenmSent
scalar World.node[45].appl.middleware.DenService reception:count 0
attr source DenmReceived
scalar World.node[45].nic.phy80211p busyTime 0.00011089947089947
scalar World.node[45].nic.mac1609_4 ReceivedUnicastPackets 0
scalar World.node[45].nic.mac1609_4 ReceivedBroadcasts 0
scalar World.node[45].nic.mac1609_4 SentPackets 1
scalar World.node[45].nic.mac1609_4 SentAcknowledgements 0
scalar World.node[45].nic.mac1609_4 RetriesExceeded 0
scalar World.node[45].nic.mac1609_4 SNIRLostPackets 0
scalar World.node[45].nic.mac1609_4 RXTXLostPackets 617
scalar World.node[45].nic.mac1609_4 TotalLostPackets 617
scalar World.node[45].nic.mac1609_4 DroppedPacketsInMac 0
scalar World.node[45].nic.mac1609_4 TooLittleTime 0
scalar World.node[45].nic.mac1609_4 TimesIntoBackoff 1
scalar World.node[45].nic.mac1609_4 SlotsBackoff 7
scalar World.node[45].nic.mac1609_4 NumInternalContention 0
scalar World.node[45].nic.mac1609_4 totalBusyTime 0.002096
scalar World.node[45].nic.mac1609_4 retriesExceeded:count 0
attr source org_car2x_veins_modules_mac_sigRetriesExceeded
scalar World.node[45].nic.mac1609_4 sentAcks:count 0
attr source org_car2x_veins_modules_mac_sigSentAck
scalar World.node[45].nic.mac1609_4 sentPackets:count 1
attr source org_car2x_veins_modules_mac_sigSentPacket
scalar World.node[45].nic.mac1609_4 collisions:count 0
attr source org_car2x_veins_modules_mac_sigCollision
scalar World.node[45].nic.mac1609_4 channelBusy:timeavg 0.98963826507217
attr source org_car2x_veins_modules_mac_sigChannelBusy
scalar World.node[29].appl.middleware.DenService transmission:count 312
attr source DenmSent
scalar World.node[29].appl.middleware.DenService reception:count 0
attr source DenmReceived
scalar World.node[29].nic.phy80211p busyTime 3.0799031476998e-05
scalar World.node[29].nic.mac1609_4 ReceivedUnicastPackets 0
scalar World.node[29].nic.mac1609_4 ReceivedBroadcasts 0
scalar World.node[29].nic.mac1609_4 SentPackets 1
scalar World.node[29].nic.mac1609_4 SentAcknowledgements 0
scalar World.node[29].nic.mac1609_4 RetriesExceeded 0
scalar World.node[29].nic.mac1609_4 SNIRLostPackets 0
scalar World.node[29].nic.mac1609_4 RXTXLostPackets 1525
scalar World.node[29].nic.mac1609_4 TotalLostPackets 1525
scalar World.node[29].nic.mac1609_4 DroppedPacketsInMac 0
scalar World.node[29].nic.mac1609_4 TooLittleTime 0
scalar World.node[29].nic.mac1609_4 TimesIntoBackoff 1
scalar World.node[29].nic.mac1609_4 SlotsBackoff 1
scalar World.node[29].nic.mac1609_4 NumInternalContention 0
scalar World.node[29].nic.mac1609_4 totalBusyTime 0.001272
scalar World.node[29].nic.mac1609_4 retriesExceeded:count 0
attr source org_car2x_veins_modules_mac_sigRetriesExceeded
scalar World.node[29].nic.mac1609_4 sentAcks:count 0
attr source org_car2x_veins_modules_mac_sigSentAck
scalar World.node[29].nic.mac1609_4 sentPackets:count 1
attr source org_car2x_veins_modules_mac_sigSentPacket
scalar World.node[29].nic.mac1609_4 collisions:count 0
attr source org_car2x_veins_modules_mac_sigCollision
scalar World.node[29].nic.mac1609_4 channelBusy:timeavg 0.99744437610039
attr source org_car2x_veins_modules_mac_sigChannelBusy
scalar World.node[26].appl.middleware.DenService transmission:count 0
attr source DenmSent
scalar World.node[26].appl.middleware.DenService reception:count 0
attr source DenmReceived
scalar World.node[26].nic.phy80211p busyTime 3.3607305936073e-05
scalar World.node[26].nic.mac1609_4 ReceivedUnicastPackets 0
scalar World.node[26].nic.mac1609_4 ReceivedBroadcasts 0
scalar World.node[26].nic.mac1609_4 SentPackets 1
scalar World.node[26].nic.mac1609_4 SentAcknowledgements 0
scalar World.node[26].nic.mac1609_4 RetriesExceeded 0
scalar World.node[26].nic.mac1609_4 SNIRLostPackets 0
scalar World.node[26].nic.mac1609_4 RXTXLostPackets 1606
scalar World.node[26].nic.mac1609_4 TotalLostPackets 1606
scalar World.node[26].nic.mac1609_4 DroppedPacketsInMac 0
scalar World.node[26].nic.mac1609_4 TooLittleTime 0
scalar World.node[26].nic.mac1609_4 TimesIntoBackoff 0
scalar World.node[26].nic.mac1609_4 SlotsBackoff 0
scalar World.node[26].nic.mac1609_4 NumInternalContention 0
scalar World.node[26].nic.mac1609_4 totalBusyTime 0.001472
scalar World.node[26].nic.mac1609_4 retriesExceeded:count 0
attr source org_car2x_veins_modules_mac_sigRetriesExceeded
scalar World.node[26].nic.mac1609_4 sentAcks:count 0
attr source org_car2x_veins_modules_mac_sigSentAck
scalar World.node[26].nic.mac1609_4 sentPackets:count 1
attr source org_car2x_veins_modules_mac_sigSentPacket
scalar World.node[26].nic.mac1609_4 collisions:count 0
attr source org_car2x_veins_modules_mac_sigCollision
scalar World.node[26].nic.mac1609_4 channelBusy:timeavg 0.99642831350418
attr source org_car2x_veins_modules_mac_sigChannelBusy
scalar World.node[39].appl.middleware.DenService transmission:count 80
attr source DenmSent
scalar World.node[39].appl.middleware.DenService reception:count 0
attr source DenmReceived
scalar World.node[39].nic.phy80211p busyTime 4.2541806020067e-05
scalar World.node[39].nic.mac1609_4 ReceivedUnicastPackets 0
scalar World.node[39].nic.mac1609_4 ReceivedBroadcasts 0
scalar World.node[39].nic.mac1609_4 SentPackets 1
scalar World.node[39].nic.mac1609_4 SentAcknowledgements 0
scalar World.node[39].nic.mac1609_4 RetriesExceeded 0
scalar World.node[39].nic.mac1609_4 SNIRLostPackets 0
scalar World.node[39].nic.mac1609_4 RXTXLostPackets 1032
scalar World.node[39].nic.mac1609_4 TotalLostPackets 1032
scalar World.node[39].nic.mac1609_4 DroppedPacketsInMac 0
scalar World.node[39].nic.mac1609_4 TooLittleTime 0
scalar World.node[39].nic.mac1609_4 TimesIntoBackoff 1
scalar World.node[39].nic.mac1609_4 SlotsBackoff 3
scalar World.node[39].nic.mac1609_4 NumInternalContention 0
scalar World.node[39].nic.mac1609_4 totalBusyTime 0.001272
scalar World.node[39].nic.mac1609_4 retriesExceeded:count 0
attr source org_car2x_veins_modules_mac_sigRetriesExceeded
scalar World.node[39].nic.mac1609_4 sentAcks:count 0
attr source org_car2x_veins_modules_mac_sigSentAck
scalar World.node[39].nic.mac1609_4 sentPackets:count 1
attr source org_car2x_veins_modules_mac_sigSentPacket
scalar World.node[39].nic.mac1609_4 collisions:count 0
attr source org_car2x_veins_modules_mac_sigCollision
scalar World.node[39].nic.mac1609_4 channelBusy:timeavg 0.99593623826254
attr source org_car2x_veins_modules_mac_sigChannelBusy
scalar World.node[32].appl.middleware.DenService transmission:count 50
attr source DenmSent
scalar World.node[32].appl.middleware.DenService reception:count 0
attr source DenmReceived
scalar World.node[32].nic.phy80211p busyTime 3.6394849785408e-05
scalar World.node[32].nic.mac1609_4 ReceivedUnicastPackets 0
scalar World.node[32].nic.mac1609_4 ReceivedBroadcasts 0
scalar World.node[32].nic.mac1609_4 SentPackets 1
scalar World.node[32].nic.mac1609_4 SentAcknowledgements 0
scalar World.node[32].nic.mac1609_4 RetriesExceeded 0
scalar World.node[32].nic.mac1609_4 SNIRLostPackets 0
scalar World.node[32].nic.mac1609_4 RXTXLostPackets 1733
scalar World.node[32].nic.mac1609_4 TotalLostPackets 1733
scalar World.node[32].nic.mac1609_4 DroppedPacketsInMac 0
scalar World.node[32].nic.mac1609_4 TooLittleTime 0
scalar World.node[32].nic.mac1609_4 TimesIntoBackoff 1
scalar World.node[32].nic.mac1609_4 SlotsBackoff 0
scalar World.node[32].nic.mac1609_4 NumInternalContention 0
scalar World.node[32].nic.mac1609_4 totalBusyTime 0.001696
scalar World.node[32].nic.mac1609_4 retriesExceeded:count 0
attr source org_car2x_veins_modules_mac_sigRetriesExceeded
scalar World.node[32].nic.mac1609_4 sentAcks:count 0
attr source org_car2x_veins_modules_mac_sigSentAck
scalar World.node[32].nic.mac1609_4 sentPackets:count 1
attr source org_car2x_veins_modules_mac_sigSentPacket
scalar World.node[32].nic.mac1609_4 collisions:count 0
attr source org_car2x_veins_modules_mac_sigCollision
scalar World.node[32].nic.mac1609_4 channelBusy:timeavg 0.99701955498185
attr source org_car2x_veins_modules_mac_sigChannelBusy
scalar World.node[8].appl.middleware.DenService transmission:count 509
attr source DenmSent
scalar World.node[8].appl.middleware.DenService reception:count 0
attr source DenmReceived
scalar World.node[8].nic.phy80211p busyTime 0
scalar World.node[8].nic.mac1609_4 ReceivedUnicastPackets 0
scalar World.node[8].nic.mac1609_4 ReceivedBroadcasts 0
scalar World.node[8].nic.mac1609_4 SentPackets 1
scalar World.node[8].nic.mac1609_4 SentAcknowledgements 0
scalar World.node[8].nic.mac1609_4 RetriesExceeded 0
scalar World.node[8].nic.mac1609_4 SNIRLostPackets 0
scalar World.node[8].nic.mac1609_4 RXTXLostPackets 2256
scalar World.node[8].nic.mac1609_4 TotalLostPackets 2256
scalar World.node[8].nic.mac1609_4 DroppedPacketsInMac 0
scalar World.node[8].nic.mac1609_4 TooLittleTime 0
scalar World.node[8].nic.mac1609_4 TimesIntoBackoff 1
scalar World.node[8].nic.mac1609_4 SlotsBackoff 3
scalar World.node[8].nic.mac1609_4 NumInternalContention 0
scalar World.node[8].nic.mac1609_4 totalBusyTime 0
scalar World.node[8].nic.mac1609_4 retriesExceeded:count 0
attr source org_car2x_veins_modules_mac_sigRetriesExceeded
scalar World.node[8].nic.mac1609_4 sentAcks:count 0
attr source org_car2x_veins_modules_mac_sigSentAck
scalar World.node[8].nic.mac1609_4 sentPackets:count 1
attr source org_car2x_veins_modules_mac_sigSentPacket
scalar World.node[8].nic.mac1609_4 collisions:count 0
attr source org_car2x_veins_modules_mac_sigCollision
scalar World.node[8].nic.mac1609_4 channelBusy:timeavg 0.9980782
attr source org_car2x_veins_modules_mac_sigChannelBusy
scalar World.node[37].appl.middleware.DenService transmission:count 50
attr source DenmSent
scalar World.node[37].appl.middleware.DenService reception:count 0
attr source DenmReceived
scalar World.node[37].nic.phy80211p busyTime 5.4588235294118e-05
scalar World.node[37].nic.mac1609_4 ReceivedUnicastPackets 0
scalar World.node[37].nic.mac1609_4 ReceivedBroadcasts 0
scalar World.node[37].nic.mac1609_4 SentPackets 1
scalar World.node[37].nic.mac1609_4 SentAcknowledgements 0
scalar World.node[37].nic.mac1609_4 RetriesExceeded 0
scalar World.node[37].nic.mac1609_4 SNIRLostPackets 0
scalar World.node[37].nic.mac1609_4 RXTXLostPackets 1520
scalar World.node[37].nic.mac1609_4 TotalLostPackets 1520
scalar World.node[37].nic.mac1609_4 DroppedPacketsInMac 0
scalar World.node[37].nic.mac1609_4 TooLittleTime 0
scalar World.node[37].nic.mac1609_4 TimesIntoBackoff 1
scalar World.node[37].nic.mac1609_4 SlotsBackoff 7
scalar World.node[37].nic.mac1609_4 NumInternalContention 0
scalar World.node[37].nic.mac1609_4 totalBusyTime 0.00232
scalar World.node[37].nic.mac1609_4 retriesExceeded:count 0
attr source org_car2x_veins_modules_mac_sigRetriesExceeded
scalar World.node[37].nic.mac1609_4 sentAcks:count 0
attr source org_car2x_veins_modules_mac_sigSentAck
scalar World.node[37].nic.mac1609_4 sentPackets:count 1
attr source org_car2x_veins_modules_mac_sigSentPacket
scalar World.node[37].nic.mac1609_4 collisions:count 0
attr source org_car2x_veins_modules_mac_sigCollision
scalar World.node[37].nic.mac1609_4 channelBusy:timeavg 0.99670118425628
attr source org_car2x_veins_modules_mac_sigChannelBusy
scalar World.node[36].appl.middleware.DenService transmission:count 0
attr source DenmSent
scalar World.node[36].appl.middleware.DenService reception:count 0
attr source DenmReceived
scalar World.node[36].nic.phy80211p busyTime 5.0877192982456e-05
scalar World.node[36].nic.mac1609_4 ReceivedUnicastPackets 0
scalar World.node[36].nic.mac1609_4 ReceivedBroadcasts 0
scalar World.node[36].nic.mac1609_4 SentPackets 1
scalar World.node[36].nic.mac1609_4 SentAcknowledgements 0
scalar World.node[36].nic.mac1609_4 RetriesExceeded 0
scalar World.node[36].nic.mac1609_4 SNIRLostPackets 0
scalar World.node[36].nic.mac1609_4 RXTXLostPackets 1669
scalar World.node[36].nic.mac1609_4 TotalLostPackets 1669
scalar World.node[36].nic.mac1609_4 DroppedPacketsInMac 0
scalar World.node[36].nic.mac1609_4 TooLittleTime 0
scalar World.node[36].nic.mac1609_4 TimesIntoBackoff 0
scalar World.node[36].nic.mac1609_4 SlotsBackoff 0
scalar World.node[36].nic.mac1609_4 NumInternalContention 0
scalar World.node[36].nic.mac1609_4 totalBusyTime 0.00232
scalar World.node[36].nic.mac1609_4 retriesExceeded:count 0
attr source org_car2x_veins_modules_mac_sigRetriesExceeded
scalar World.node[36].nic.mac1609_4 sentAcks:count 0
attr source org_car2x_veins_modules_mac_sigSentAck
scalar World.node[36].nic.mac1609_4 sentPackets:count 1
attr source org_car2x_veins_modules_mac_sigSentPacket
scalar World.node[36].nic.mac1609_4 collisions:count 0
attr source org_car2x_veins_modules_mac_sigCollision
scalar World.node[36].nic.mac1609_4 channelBusy:timeavg 0.9972186993757
attr source org_car2x_veins_modules_mac_sigChannelBusy
scalar World.node[25].appl.middleware.DenService transmission:count 505
attr source DenmSent
scalar World.node[25].appl.middleware.DenService reception:count 0
attr source DenmReceived
scalar World.node[25].nic.phy80211p busyTime 3.4983498349835e-05
scalar World.node[25].nic.mac1609_4 ReceivedUnicastPackets 0
scalar World.node[25].nic.mac1609_4 ReceivedBroadcasts 0
scalar World.node[25].nic.mac1609_4 SentPackets 1
scalar World.node[25].nic.mac1609_4 SentAcknowledgements 0
scalar World.node[25].nic.mac1609_4 RetriesExceeded 0
scalar World.node[25].nic.mac1609_4 SNIRLostPackets 0
scalar World.node[25].nic.mac1609_4 RXTXLostPackets 2242
scalar World.node[25].nic.mac1609_4 TotalLostPackets 2242
scalar World.node[25].nic.mac1609_4 DroppedPacketsInMac 0
scalar World.node[25].nic.mac1609_4 TooLittleTime 0
scalar World.node[25].nic.mac1609_4 TimesIntoBackoff 1
scalar World.node[25].nic.mac1609_4 SlotsBackoff 0
scalar World.node[25].nic.mac1609_4 NumInternalContention 0
scalar World.node[25].nic.mac1609_4 totalBusyTime 0.00212
scalar World.node[25].nic.mac1609_4 retriesExceeded:count 0
attr source org_car2x_veins_modules_mac_sigRetriesExceeded
scalar World.node[25].nic.mac1609_4 sentAcks:count 0
attr source org_car2x_veins_modules_mac_sigSentAck
scalar World.node[25].nic.mac1609_4 sentPackets:count 1
attr source org_car2x_veins_modules_mac_sigSentPacket
scalar World.node[25].nic.mac1609_4 collisions:count 0
attr source org_car2x_veins_modules_mac_sigCollision
scalar World.node[25].nic.mac1609_4 channelBusy:timeavg 0.99676768647985
attr source org_car2x_veins_modules_mac_sigChannelBusy
scalar World.node[11].appl.middleware.DenService transmission:count 722
attr source DenmSent
scalar World.node[11].appl.middleware.DenService reception:count 0
attr source DenmReceived
scalar World.node[11].nic.phy80211p busyTime 0
scalar World.node[11].nic.mac1609_4 ReceivedUnicastPackets 0
scalar World.node[11].nic.mac1609_4 ReceivedBroadcasts 0
scalar World.node[11].nic.mac1609_4 SentPackets 1
scalar World.node[11].nic.mac1609_4 SentAcknowledgements 0
scalar World.node[11].nic.mac1609_4 RetriesExceeded 0
scalar World.node[11].nic.mac1609_4 SNIRLostPackets 0
scalar World.node[11].nic.mac1609_4 RXTXLostPackets 2534
scalar World.node[11].nic.mac1609_4 TotalLostPackets 2534
scalar World.node[11].nic.mac1609_4 DroppedPacketsInMac 0
scalar World.node[11].nic.mac1609_4 TooLittleTime 0
scalar World.node[11].nic.mac1609_4 TimesIntoBackoff 1
scalar World.node[11].nic.mac1609_4 SlotsBackoff 2
scalar World.node[11].nic.mac1609_4 NumInternalContention 0
scalar World.node[11].nic.mac1609_4 totalBusyTime 0
scalar World.node[11].nic.mac1609_4 retriesExceeded:count 0
attr source org_car2x_veins_modules_mac_sigRetriesExceeded
scalar World.node[11].nic.mac1609_4 sentAcks:count 0
attr source org_car2x_veins_modules_mac_sigSentAck
scalar World.node[11].nic.mac1609_4 sentPackets:count 1
attr source org_car2x_veins_modules_mac_sigSentPacket
scalar World.node[11].nic.mac1609_4 collisions:count 0
attr source org_car2x_veins_modules_mac_sigCollision
scalar World.node[11].nic.mac1609_4 channelBusy:timeavg 0.99851464155529
attr source org_car2x_veins_modules_mac_sigChannelBusy
scalar World.node[14].appl.middleware.DenService transmission:count 20
attr source DenmSent
scalar World.node[14].appl.middleware.DenService reception:count 0
attr source DenmReceived
scalar World.node[14].nic.phy80211p busyTime 0
scalar World.node[14].nic.mac1609_4 ReceivedUnicastPackets 0
scalar World.node[14].nic.mac1609_4 ReceivedBroadcasts 0
scalar World.node[14].nic.mac1609_4 SentPackets 1
scalar World.node[14].nic.mac1609_4 SentAcknowledgements 0
scalar World.node[14].nic.mac1609_4 RetriesExceeded 0
scalar World.node[14].nic.mac1609_4 SNIRLostPackets 0
scalar World.node[14].nic.mac1609_4 RXTXLostPackets 2597
scalar World.node[14].nic.mac1609_4 TotalLostPackets 2597
scalar World.node[14].nic.mac1609_4 DroppedPacketsInMac 0
scalar World.node[14].nic.mac1609_4 TooLittleTime 0
scalar World.node[14].nic.mac1609_4 TimesIntoBackoff 1
scalar World.node[14].nic.mac1609_4 SlotsBackoff 7
scalar World.node[14].nic.mac1609_4 NumInternalContention 0
scalar World.node[14].nic.mac1609_4 totalBusyTime 0
scalar World.node[14].nic.mac1609_4 retriesExceeded:count 0
attr source org_car2x_veins_modules_mac_sigRetriesExceeded
scalar World.node[14].nic.mac1609_4 sentAcks:count 0
attr source org_car2x_veins_modules_mac_sigSentAck
scalar World.node[14].nic.mac1609_4 sentPackets:count 1
attr source org_car2x_veins_modules_mac_sigSentPacket
scalar World.node[14].nic.mac1609_4 collisions:count 0
attr source org_car2x_veins_modules_mac_sigCollision
scalar World.node[14].nic.mac1609_4 channelBusy:timeavg 0.99780879849812
attr source org_car2x_veins_modules_mac_sigChannelBusy
scalar World.node[33].appl.middleware.DenService transmission:count 553
attr source DenmSent
scalar World.node[33].appl.middleware.DenService reception:count 0
attr source DenmReceived
scalar World.node[33].nic.phy80211p busyTime 2.2507645259939e-05
scalar World.node[33].nic.mac1609_4 ReceivedUnicastPackets 0
scalar World.node[33].nic.mac1609_4 ReceivedBroadcasts 0
scalar World.node[33].nic.mac1609_4 SentPackets 1
scalar World.node[33].nic.mac1609_4 SentAcknowledgements 0
scalar World.node[33].nic.mac1609_4 RetriesExceeded 0
scalar World.node[33].nic.mac1609_4 SNIRLostPackets 0
scalar World.node[33].nic.mac1609_4 RXTXLostPackets 2480
scalar World.node[33].nic.mac1609_4 TotalLostPackets 2480
scalar World.node[33].nic.mac1609_4 DroppedPacketsInMac 0
scalar World.node[33].nic.mac1609_4 TooLittleTime 0
scalar World.node[33].nic.mac1609_4 TimesIntoBackoff 1
scalar World.node[33].nic.mac1609_4 SlotsBackoff 3
scalar World.node[33].nic.mac1609_4 NumInternalContention 0
scalar World.node[33].nic.mac1609_4 totalBusyTime 0.001472
scalar World.node[33].nic.mac1609_4 retriesExceeded:count 0
attr source org_car2x_veins_modules_mac_sigRetriesExceeded
scalar World.node[33].nic.mac1609_4 sentAcks:count 0
attr source org_car2x_veins_modules_mac_sigSentAck
scalar World.node[33].nic.mac1609_4 sentPackets:count 1
attr source org_car2x_veins_modules_mac_sigSentPacket
scalar World.node[33].nic.mac1609_4 collisions:count 0
attr source org_car2x_veins_modules_mac_sigCollision
scalar World.node[33].nic.mac1609_4 channelBusy:timeavg 0.99791584146489
attr source org_car2x_veins_modules_mac_sigChannelBusy
scalar World.node[42].appl.middleware.DenService transmission:count 430
attr source DenmSent
scalar World.node[42].appl.middleware.DenService reception:count 0
attr source DenmReceived
scalar World.node[42].nic.phy80211p busyTime 3.9324577861163e-05
scalar World.node[42].nic.mac1609_4 ReceivedUnicastPackets 0
scalar World.node[42].nic.mac1609_4 ReceivedBroadcasts 0
scalar World.node[42].nic.mac1609_4 SentPackets 1
scalar World.node[42].nic.mac1609_4 SentAcknowledgements 0
scalar World.node[42].nic.mac1609_4 RetriesExceeded 0
scalar World.node[42].nic.mac1609_4 SNIRLostPackets 0
scalar World.node[42].nic.mac1609_4 RXTXLostPackets 1965
scalar World.node[42].nic.mac1609_4 TotalLostPackets 1965
scalar World.node[42].nic.mac1609_4 DroppedPacketsInMac 0
scalar World.node[42].nic.mac1609_4 TooLittleTime 0
scalar World.node[42].nic.mac1609_4 TimesIntoBackoff 1
scalar World.node[42].nic.mac1609_4 SlotsBackoff 2
scalar World.node[42].nic.mac1609_4 NumInternalContention 0
scalar World.node[42].nic.mac1609_4 totalBusyTime 0.002096
scalar World.node[42].nic.mac1609_4 retriesExceeded:count 0
attr source org_car2x_veins_modules_mac_sigRetriesExceeded
scalar World.node[42].nic.mac1609_4 sentAcks:count 0
attr source org_car2x_veins_modules_mac_sigSentAck
scalar World.node[42].nic.mac1609_4 sentPackets:count 1
attr source org_car2x_veins_modules_mac_sigSentPacket
scalar World.node[42].nic.mac1609_4 collisions:count 0
attr source org_car2x_veins_modules_mac_sigCollision
scalar World.node[42].nic.mac1609_4 channelBusy:timeavg 0.99639809035096
attr source org_car2x_veins_modules_mac_sigChannelBusy
scalar World.node[41].appl.middleware.DenService transmission:count 0
attr source DenmSent
scalar World.node[41].appl.middleware.DenService reception:count 0
attr source DenmReceived
scalar World.node[41].nic.phy80211p busyTime 3.6966490299824e-05
scalar World.node[41].nic.mac1609_4 ReceivedUnicastPackets 0
scalar World.node[41].nic.mac1609_4 ReceivedBroadcasts 0
scalar World.node[41].nic.mac1609_4 SentPackets 1
scalar World.node[41].nic.mac1609_4 SentAcknowledgements 0
scalar World.node[41].nic.mac1609_4 RetriesExceeded 0
scalar World.node[41].nic.mac1609_4 SNIRLostPackets 0
scalar World.node[41].nic.mac1609_4 RXTXLostPackets 2131
scalar World.node[41].nic.mac1609_4 TotalLostPackets 2131
scalar World.node[41].nic.mac1609_4 DroppedPacketsInMac 0
scalar World.node[41].nic.mac1609_4 TooLittleTime 0
scalar World.node[41].nic.mac1609_4 TimesIntoBackoff 0
scalar World.node[41].nic.mac1609_4 SlotsBackoff 0
scalar World.node[41].nic.mac1609_4 NumInternalContention 0
scalar World.node[41].nic.mac1609_4 totalBusyTime 0.002096
scalar World.node[41].nic.mac1609_4 retriesExceeded:count 0
attr source org_car2x_veins_modules_mac_sigRetriesExceeded
scalar World.node[41].nic.mac1609_4 sentAcks:count 0
attr source org_car2x_veins_modules_mac_sigSentAck
scalar World.node[41].nic.mac1609_4 sentPackets:count 1
attr source org_car2x_veins_modules_mac_sigSentPacket
scalar World.node[41].nic.mac1609_4 collisions:count 0
attr source org_car2x_veins_modules_mac_sigCollision
scalar World.node[41].nic.mac1609_4 channelBusy:timeavg 0.99668711123982
attr source org_car2x_veins_modules_mac_sigChannelBusy
scalar World.node[31].appl.middleware.DenService transmission:count 651
attr source DenmSent
scalar World.node[31].appl.middleware.DenService reception:count 0
attr source DenmReceived
scalar World.node[31].nic.phy80211p busyTime 2.2234042553191e-05
scalar World.node[31].nic.mac1609_4 ReceivedUnicastPackets 0
scalar World.node[31].nic.mac1609_4 ReceivedBroadcasts 0
scalar World.node[31].nic.mac1609_4 SentPackets 1
scalar World.node[31].nic.mac1609_4 SentAcknowledgements 0
scalar World.node[31].nic.mac1609_4 RetriesExceeded 0
scalar World.node[31].nic.mac1609_4 SNIRLostPackets 0
scalar World.node[31].nic.mac1609_4 RXTXLostPackets 2952
scalar World.node[31].nic.mac1609_4 TotalLostPackets 2952
scalar World.node[31].nic.mac1609_4 DroppedPacketsInMac 0
scalar World.node[31].nic.mac1609_4 TooLittleTime 0
scalar World.node[31].nic.mac1609_4 TimesIntoBackoff 1
scalar World.node[31].nic.mac1609_4 SlotsBackoff 0
scalar World.node[31].nic.mac1609_4 NumInternalContention 0
scalar World.node[31].nic.mac1609_4 totalBusyTime 0.001672
scalar World.node[31].nic.mac1609_4 retriesExceeded:count 0
attr source org_car2x_veins_modules_mac_sigRetriesExceeded
scalar World.node[31].nic.mac1609_4 sentAcks:count 0
attr source org_car2x_veins_modules_mac_sigSentAck
scalar World.node[31].nic.mac1609_4 sentPackets:count 1
attr source org_car2x_veins_modules_mac_sigSentPacket
scalar World.node[31].nic.mac1609_4 collisions:count 0
attr source org_car2x_veins_modules_mac_sigCollision
scalar World.node[31].nic.mac1609_4 channelBusy:timeavg 0.99758728397563
attr source org_car2x_veins_modules_mac_sigChannelBusy
scalar World.node[15].appl.middleware.DenService transmission:count 0
attr source DenmSent
scalar World.node[15].appl.middleware.DenService reception:count 0
attr source DenmReceived
scalar World.node[15].nic.phy80211p busyTime 0
scalar World.node[15].nic.mac1609_4 ReceivedUnicastPackets 0
scalar World.node[15].nic.mac1609_4 ReceivedBroadcasts 0
scalar World.node[15].nic.mac1609_4 SentPackets 1
scalar World.node[15].nic.mac1609_4 SentAcknowledgements 0
scalar World.node[15].nic.mac1609_4 RetriesExceeded 0
scalar World.node[15].nic.mac1609_4 SNIRLostPackets 0
scalar World.node[15].nic.mac1609_4 RXTXLostPackets 3357
scalar World.node[15].nic.mac1609_4 TotalLostPackets 3357
scalar World.node[15].nic.mac1609_4 DroppedPacketsInMac 0
scalar World.node[15].nic.mac1609_4 TooLittleTime 0
scalar World.node[15].nic.mac1609_4 TimesIntoBackoff 0
scalar World.node[15].nic.mac1609_4 SlotsBackoff 0
scalar World.node[15].nic.mac1609_4 NumInternalContention 0
scalar World.node[15].nic.mac1609_4 totalBusyTime 0
scalar World.node[15].nic.mac1609_4 retriesExceeded:count 0
attr source org_car2x_veins_modules_mac_sigRetriesExceeded
scalar World.node[15].nic.mac1609_4 sentAcks:count 0
attr source org_car2x_veins_modules_mac_sigSentAck
scalar World.node[15].nic.mac1609_4 sentPackets:count 1
attr source org_car2x_veins_modules_mac_sigSentPacket
scalar World.node[15].nic.mac1609_4 collisions:count 0
attr source org_car2x_veins_modules_mac_sigCollision
scalar World.node[15].nic.mac1609_4 channelBusy:timeavg 0.99826324123273
attr source org_car2x_veins_modules_mac_sigChannelBusy
scalar World.node[23].appl.middleware.DenService transmission:count 740
attr source DenmSent
scalar World.node[23].appl.middleware.DenService reception:count 0
attr source DenmReceived
scalar World.node[23].nic.phy80211p busyTime 1.512485136742e-05
scalar World.node[23].nic.mac1609_4 ReceivedUnicastPackets 0
scalar World.node[23].nic.mac1609_4 ReceivedBroadcasts 0
scalar World.node[23].nic.mac1609_4 SentPackets 1
scalar World.node[23].nic.mac1609_4 SentAcknowledgements 0
scalar World.node[23].nic.mac1609_4 RetriesExceeded 0
scalar World.node[23].nic.mac1609_4 SNIRLostPackets 0
scalar World.node[23].nic.mac1609_4 RXTXLostPackets 3264
scalar World.node[23].nic.mac1609_4 TotalLostPackets 3264
scalar World.node[23].nic.mac1609_4 DroppedPacketsInMac 0
scalar World.node[23].nic.mac1609_4 TooLittleTime 0
scalar World.node[23].nic.mac1609_4 TimesIntoBackoff 1
scalar World.node[23].nic.mac1609_4 SlotsBackoff 2
scalar World.node[23].nic.mac1609_4 NumInternalContention 0
scalar World.node[23].nic.mac1609_4 totalBusyTime 0.001272
scalar World.node[23].nic.mac1609_4 retriesExceeded:count 0
attr source org_car2x_veins_modules_mac_sigRetriesExceeded
scalar World.node[23].nic.mac1609_4 sentAcks:count 0
attr source org_car2x_veins_modules_mac_sigSentAck
scalar World.node[23].nic.mac1609_4 sentPackets:count 1
attr source org_car2x_veins_modules_mac_sigSentPacket
scalar World.node[23].nic.mac1609_4 collisions:count 0
attr source org_car2x_veins_modules_mac_sigCollision
scalar World.node[23].nic.mac1609_4 channelBusy:timeavg 0.99880937238961
attr source org_car2x_veins_modules_mac_sigChannelBusy
scalar World.node[19].appl.middleware.DenService transmission:count 570
attr source DenmSent
scalar World.node[19].appl.middleware.DenService reception:count 0
attr source DenmReceived
scalar World.node[19].nic.phy80211p busyTime 4.7533632286996e-06
scalar World.node[19].nic.mac1609_4 ReceivedUnicastPackets 0
scalar World.node[19].nic.mac1609_4 ReceivedBroadcasts 0
scalar World.node[19].nic.mac1609_4 SentPackets 1
scalar World.node[19].nic.mac1609_4 SentAcknowledgements 0
scalar World.node[19].nic.mac1609_4 RetriesExceeded 0
scalar World.node[19].nic.mac1609_4 SNIRLostPackets 0
scalar World.node[19].nic.mac1609_4 RXTXLostPackets 3366
scalar World.node[19].nic.mac1609_4 TotalLostPackets 3366
scalar World.node[19].nic.mac1609_4 DroppedPacketsInMac 0
scalar World.node[19].nic.mac1609_4 TooLittleTime 0
scalar World.node[19].nic.mac1609_4 TimesIntoBackoff 1
scalar World.node[19].nic.mac1609_4 SlotsBackoff 5
scalar World.node[19].nic.mac1609_4 NumInternalContention 0
scalar World.node[19].nic.mac1609_4 totalBusyTime 0.000424
scalar World.node[19].nic.mac1609_4 retriesExceeded:count 0
attr source org_car2x_veins_modules_mac_sigRetriesExceeded
scalar World.node[19].nic.mac1609_4 sentAcks:count 0
attr source org_car2x_veins_modules_mac_sigSentAck
scalar World.node[19].nic.mac1609_4 sentPackets:count 1
attr source org_car2x_veins_modules_mac_sigSentPacket
scalar World.node[19].nic.mac1609_4 collisions:count 0
attr source org_car2x_veins_modules_mac_sigCollision
scalar World.node[19].nic.mac1609_4 channelBusy:timeavg 0.9985860807266
attr source org_car2x_veins_modules_mac_sigChannelBusy
scalar World.node[2].appl.middleware.DenService transmission:count 0
attr source DenmSent
scalar World.node[2].appl.middleware.DenService reception:count 0
attr source DenmReceived
scalar World.node[2].nic.phy80211p busyTime 0
scalar World.node[2].nic.mac1609_4 ReceivedUnicastPackets 0
scalar World.node[2].nic.mac1609_4 ReceivedBroadcasts 0
scalar World.node[2].nic.mac1609_4 SentPackets 1
scalar World.node[2].nic.mac1609_4 SentAcknowledgements 0
scalar World.node[2].nic.mac1609_4 RetriesExceeded 0
scalar World.node[2].nic.mac1609_4 SNIRLostPackets 0
scalar World.node[2].nic.mac1609_4 RXTXLostPackets 3484
scalar World.node[2].nic.mac1609_4 TotalLostPackets 3484
scalar World.node[2].nic.mac1609_4 DroppedPacketsInMac 0
scalar World.node[2].nic.mac1609_4 TooLittleTime 0
scalar World.node[2].nic.mac1609_4 TimesIntoBackoff 0
scalar World.node[2].nic.mac1609_4 SlotsBackoff 0
scalar World.node[2].nic.mac1609_4 NumInternalContention 0
scalar World.node[2].nic.mac1609_4 totalBusyTime 0
scalar World.node[2].nic.mac1609_4 retriesExceeded:count 0
attr source org_car2x_veins_modules_mac_sigRetriesExceeded
scalar World.node[2].nic.mac1609_4 sentAcks:count 0
attr source org_car2x_veins_modules_mac_sigSentAck
scalar World.node[2].nic.mac1609_4 sentPackets:count 1
attr source org_car2x_veins_modules_mac_sigSentPacket
scalar World.node[2].nic.mac1609_4 collisions:count 0
attr source org_car2x_veins_modules_mac_sigCollision
scalar World.node[2].nic.mac1609_4 channelBusy:timeavg 0.99889132404181
attr source org_car2x_veins_modules_mac_sigChannelBusy
scalar World.node[48].appl.middleware.DenService transmission:count 50
attr source DenmSent
scalar World.node[48].appl.middleware.DenService reception:count 0
attr source DenmReceived
scalar World.node[48].nic.phy80211p busyTime 4.0613026819923e-05
scalar World.node[48].nic.mac1609_4 ReceivedUnicastPackets 0
scalar World.node[48].nic.mac1609_4 ReceivedBroadcasts 0
scalar World.node[48].nic.mac1609_4 SentPackets 1
scalar World.node[48].nic.mac1609_4 SentAcknowledgements 0
scalar World.node[48].nic.mac1609_4 RetriesExceeded 0
scalar World.node[48].nic.mac1609_4 SNIRLostPackets 0
scalar World.node[48].nic.mac1609_4 RXTXLostPackets 2103
scalar World.node[48].nic.mac1609_4 TotalLostPackets 2103
scalar World.node[48].nic.mac1609_4 DroppedPacketsInMac 0
scalar World.node[48].nic.mac1609_4 TooLittleTime 0
scalar World.node[48].nic.mac1609_4 TimesIntoBackoff 1
scalar World.node[48].nic.mac1609_4 SlotsBackoff 3
scalar World.node[48].nic.mac1609_4 NumInternalContention 0
scalar World.node[48].nic.mac1609_4 totalBusyTime 0.00212
scalar World.node[48].nic.mac1609_4 retriesExceeded:count 0
attr source org_car2x_veins_modules_mac_sigRetriesExceeded
scalar World.node[48].nic.mac1609_4 sentAcks:count 0
attr source org_car2x_veins_modules_mac_sigSentAck
scalar World.node[48].nic.mac1609_4 sentPackets:count 1
attr source org_car2x_veins_modules_mac_sigSentPacket
scalar World.node[48].nic.mac1609_4 collisions:count 0
attr source org_car2x_veins_modules_mac_sigCollision
scalar World.node[48].nic.mac1609_4 channelBusy:timeavg 0.99668141055912
attr source org_car2x_veins_modules_mac_sigChannelBusy
scalar World.node[50].appl.middleware.DenService transmission:count 420
attr source DenmSent
scalar World.node[50].appl.middleware.DenService reception:count 65
attr source DenmReceived
scalar World.node[50].nic.phy80211p busyTime 0.012173478260869
scalar World.node[50].nic.mac1609_4 ReceivedUnicastPackets 0
scalar World.node[50].nic.mac1609_4 ReceivedBroadcasts 1679
scalar World.node[50].nic.mac1609_4 SentPackets 663
scalar World.node[50].nic.mac1609_4 SentAcknowledgements 0
scalar World.node[50].nic.mac1609_4 RetriesExceeded 0
scalar World.node[50].nic.mac1609_4 SNIRLostPackets 2
scalar World.node[50].nic.mac1609_4 RXTXLostPackets 0
scalar World.node[50].nic.mac1609_4 TotalLostPackets 2
scalar World.node[50].nic.mac1609_4 DroppedPacketsInMac 0
scalar World.node[50].nic.mac1609_4 TooLittleTime 0
scalar World.node[50].nic.mac1609_4 TimesIntoBackoff 667
scalar World.node[50].nic.mac1609_4 SlotsBackoff 4561
scalar World.node[50].nic.mac1609_4 NumInternalContention 0
scalar World.node[50].nic.mac1609_4 totalBusyTime 0.928239
scalar World.node[50].nic.mac1609_4 retriesExceeded:count 0
attr source org_car2x_veins_modules_mac_sigRetriesExceeded
scalar World.node[50].nic.mac1609_4 sentAcks:count 0
attr source org_car2x_veins_modules_mac_sigSentAck
scalar World.node[50].nic.mac1609_4 sentPackets:count 663
attr source org_car2x_veins_modules_mac_sigSentPacket
scalar World.node[50].nic.mac1609_4 collisions:count 0
attr source org_car2x_veins_modules_mac_sigCollision
scalar World.node[50].nic.mac1609_4 channelBusy:timeavg 0.016815923913043
attr source org_car2x_veins_modules_mac_sigChannelBusy
scalar World.node[66].appl.middleware.DenService transmission:count 276
attr source DenmSent
scalar World.node[66].appl.middleware.DenService reception:count 0
attr source DenmReceived
scalar World.node[66].nic.phy80211p busyTime 5.0291777188329e-05
scalar World.node[66].nic.mac1609_4 ReceivedUnicastPackets 0
scalar World.node[66].nic.mac1609_4 ReceivedBroadcasts 0
scalar World.node[66].nic.mac1609_4 SentPackets 1
scalar World.node[66].nic.mac1609_4 SentAcknowledgements 0
scalar World.node[66].nic.mac1609_4 RetriesExceeded 0
scalar World.node[66].nic.mac1609_4 SNIRLostPackets 0
scalar World.node[66].nic.mac1609_4 RXTXLostPackets 1768
scalar World.node[66].nic.mac1609_4 TotalLostPackets 1768
scalar World.node[66].nic.mac1609_4 DroppedPacketsInMac 0
scalar World.node[66].nic.mac1609_4 TooLittleTime 0
scalar World.node[66].nic.mac1609_4 TimesIntoBackoff 1
scalar World.node[66].nic.mac1609_4 SlotsBackoff 6
scalar World.node[66].nic.mac1609_4 NumInternalContention 0
scalar World.node[66].nic.mac1609_4 totalBusyTime 0.001896
scalar World.node[66].nic.mac1609_4 retriesExceeded:count 0
attr source org_car2x_veins_modules_mac_sigRetriesExceeded
scalar World.node[66].nic.mac1609_4 sentAcks:count 0
attr source org_car2x_veins_modules_mac_sigSentAck
scalar World.node[66].nic.mac1609_4 sentPackets:count 1
attr source org_car2x_veins_modules_mac_sigSentPacket
scalar World.node[66].nic.mac1609_4 collisions:count 0
attr source org_car2x_veins_modules_mac_sigCollision
scalar World.node[66].nic.mac1609_4 channelBusy:timeavg 0.99561251466446
attr source org_car2x_veins_modules_mac_sigChannelBusy
scalar World.node[60].appl.middleware.DenService transmission:count 0
attr source DenmSent
scalar World.node[60].appl.middleware.DenService reception:count 0
attr source DenmReceived
scalar World.node[60].nic.phy80211p busyTime 4.0599571734475e-05
scalar World.node[60].nic.mac1609_4 ReceivedUnicastPackets 0
scalar World.node[60].nic.mac1609_4 ReceivedBroadcasts 0
scalar World.node[60].nic.mac1609_4 SentPackets 1
scalar World.node[60].nic.mac1609_4 SentAcknowledgements 0
scalar World.node[60].nic.mac1609_4 RetriesExceeded 0
scalar World.node[60].nic.mac1609_4 SNIRLostPackets 0
scalar World.node[60].nic.mac1609_4 RXTXLostPackets 2151
scalar World.node[60].nic.mac1609_4 TotalLostPackets 2151
scalar World.node[60].nic.mac1609_4 DroppedPacketsInMac 0
scalar World.node[60].nic.mac1609_4 TooLittleTime 0
scalar World.node[60].nic.mac1609_4 TimesIntoBackoff 0
scalar World.node[60].nic.mac1609_4 SlotsBackoff 0
scalar World.node[60].nic.mac1609_4 NumInternalContention 0
scalar World.node[60].nic.mac1609_4 totalBusyTime 0.001896
scalar World.node[60].nic.mac1609_4 retriesExceeded:count 0
attr source org_car2x_veins_modules_mac_sigRetriesExceeded
scalar World.node[60].nic.mac1609_4 sentAcks:count 0
attr source org_car2x_veins_modules_mac_sigSentAck
scalar World.node[60].nic.mac1609_4 sentPackets:count 1
attr source org_car2x_veins_modules_mac_sigSentPacket
scalar World.node[60].nic.mac1609_4 collisions:count 0
attr source org_car2x_veins_modules_mac_sigCollision
scalar World.node[60].nic.mac1609_4 channelBusy:timeavg 0.99637163131255
attr source org_car2x_veins_modules_mac_sigChannelBusy
scalar World.node[44].appl.middleware.DenService transmission:count 0
attr source DenmSent
scalar World.node[44].appl.middleware.DenService reception:count 0
attr source DenmReceived
scalar World.node[44].nic.phy80211p busyTime 2.2028985507246e-05
scalar World.node[44].nic.mac1609_4 ReceivedUnicastPackets 0
scalar World.node[44].nic.mac1609_4 ReceivedBroadcasts 0
scalar World.node[44].nic.mac1609_4 SentPackets 1
scalar World.node[44].nic.mac1609_4 SentAcknowledgements 0
scalar World.node[44].nic.mac1609_4 RetriesExceeded 0
scalar World.node[44].nic.mac1609_4 SNIRLostPackets 0
scalar World.node[44].nic.mac1609_4 RXTXLostPackets 3170
scalar World.node[44].nic.mac1609_4 TotalLostPackets 3170
scalar World.node[44].nic.mac1609_4 DroppedPacketsInMac 0
scalar World.node[44].nic.mac1609_4 TooLittleTime 0
scalar World.node[44].nic.mac1609_4 TimesIntoBackoff 0
scalar World.node[44].nic.mac1609_4 SlotsBackoff 0
scalar World.node[44].nic.mac1609_4 NumInternalContention 0
scalar World.node[44].nic.mac1609_4 totalBusyTime 0.001672
scalar World.node[44].nic.mac1609_4 retriesExceeded:count 0
attr source org_car2x_veins_modules_mac_sigRetriesExceeded
scalar World.node[44].nic.mac1609_4 sentAcks:count 0
attr source org_car2x_veins_modules_mac_sigSentAck
scalar World.node[44].nic.mac1609_4 sentPackets:count 1
attr source org_car2x_veins_modules_mac_sigSentPacket
scalar World.node[44].nic.mac1609_4 collisions:count 0
attr source org_car2x_veins_modules_mac_sigCollision
scalar World.node[44].nic.mac1609_4 channelBusy:timeavg 0.99766936571025
attr source org_car2x_veins_modules_mac_sigChannelBusy
scalar World.node[53].appl.middleware.DenService transmission:count 0
attr source DenmSent
scalar World.node[53].appl.middleware.DenService reception:count 0
attr source DenmReceived
scalar World.node[53].nic.phy80211p busyTime 4.6429780033841e-05
scalar World.node[53].nic.mac1609_4 ReceivedUnicastPackets 0
scalar World.node[53].nic.mac1609_4 ReceivedBroadcasts 0
scalar World.node[53].nic.mac1609_4 SentPackets 1
scalar World.node[53].nic.mac1609_4 SentAcknowledgements 0
scalar World.node[53].nic.mac1609_4 RetriesExceeded 0
scalar World.node[53].nic.mac1609_4 SNIRLostPackets 0
scalar World.node[53].nic.mac1609_4 RXTXLostPackets 2653
scalar World.node[53].nic.mac1609_4 TotalLostPackets 2653
scalar World.node[53].nic.mac1609_4 DroppedPacketsInMac 0
scalar World.node[53].nic.mac1609_4 TooLittleTime 0
scalar World.node[53].nic.mac1609_4 TimesIntoBackoff 0
scalar World.node[53].nic.mac1609_4 SlotsBackoff 0
scalar World.node[53].nic.mac1609_4 NumInternalContention 0
scalar World.node[53].nic.mac1609_4 totalBusyTime 0.002744
scalar World.node[53].nic.mac1609_4 retriesExceeded:count 0
attr source org_car2x_veins_modules_mac_sigRetriesExceeded
scalar World.node[53].nic.mac1609_4 sentAcks:count 0
attr source org_car2x_veins_modules_mac_sigSentAck
scalar World.node[53].nic.mac1609_4 sentPackets:count 1
attr source org_car2x_veins_modules_mac_sigSentPacket
scalar World.node[53].nic.mac1609_4 collisions:count 0
attr source org_car2x_veins_modules_mac_sigCollision
scalar World.node[53].nic.mac1609_4 channelBusy:timeavg 0.99671802828271
attr source org_car2x_veins_modules_mac_sigChannelBusy
scalar World.node[0].appl.middleware.DenService transmission:count 740
attr source DenmSent
scalar World.node[0].appl.middleware.DenService reception:count 0
attr source DenmReceived
scalar World.node[0].nic.phy80211p busyTime 0
scalar World.node[0].nic.mac1609_4 ReceivedUnicastPackets 0
scalar World.node[0].nic.mac1609_4 ReceivedBroadcasts 0
scalar World.node[0].nic.mac1609_4 SentPackets 1
scalar World.node[0].nic.mac1609_4 SentAcknowledgements 0
scalar World.node[0].nic.mac1609_4 RetriesExceeded 0
scalar World.node[0].nic.mac1609_4 SNIRLostPackets 0
scalar World.node[0].nic.mac1609_4 RXTXLostPackets 4496
scalar World.node[0].nic.mac1609_4 TotalLostPackets 4496
scalar World.node[0].nic.mac1609_4 DroppedPacketsInMac 0
scalar World.node[0].nic.mac1609_4 TooLittleTime 0
scalar World.node[0].nic.mac1609_4 TimesIntoBackoff 1
scalar World.node[0].nic.mac1609_4 SlotsBackoff 3
scalar World.node[0].nic.mac1609_4 NumInternalContention 0
scalar World.node[0].nic.mac1609_4 totalBusyTime 0
scalar World.node[0].nic.mac1609_4 retriesExceeded:count 0
attr source org_car2x_veins_modules_mac_sigRetriesExceeded
scalar World.node[0].nic.mac1609_4 sentAcks:count 0
attr source org_car2x_veins_modules_mac_sigSentAck
scalar World.node[0].nic.mac1609_4 sentPackets:count 1
attr source org_car2x_veins_modules_mac_sigSentPacket
scalar World.node[0].nic.mac1609_4 collisions:count 0
attr source org_car2x_veins_modules_mac_sigCollision
scalar World.node[0].nic.mac1609_4 channelBusy:timeavg 0.99863078850405
attr source org_car2x_veins_modules_mac_sigChannelBusy
scalar World.node[47].appl.middleware.DenService transmission:count 520
attr source DenmSent
scalar World.node[47].appl.middleware.DenService reception:count 0
attr source DenmReceived
scalar World.node[47].nic.phy80211p busyTime 2.7748691099476e-05
scalar World.node[47].nic.mac1609_4 ReceivedUnicastPackets 0
scalar World.node[47].nic.mac1609_4 ReceivedBroadcasts 0
scalar World.node[47].nic.mac1609_4 SentPackets 1
scalar World.node[47].nic.mac1609_4 SentAcknowledgements 0
scalar World.node[47].nic.mac1609_4 RetriesExceeded 0
scalar World.node[47].nic.mac1609_4 SNIRLostPackets 0
scalar World.node[47].nic.mac1609_4 RXTXLostPackets 3377
scalar World.node[47].nic.mac1609_4 TotalLostPackets 3377
scalar World.node[47].nic.mac1609_4 DroppedPacketsInMac 0
scalar World.node[47].nic.mac1609_4 TooLittleTime 0
scalar World.node[47].nic.mac1609_4 TimesIntoBackoff 1
scalar World.node[47].nic.mac1609_4 SlotsBackoff 4
scalar World.node[47].nic.mac1609_4 NumInternalContention 0
scalar World.node[47].nic.mac1609_4 totalBusyTime 0.00212
scalar World.node[47].nic.mac1609_4 retriesExceeded:count 0
attr source org_car2x_veins_modules_mac_sigRetriesExceeded
scalar World.node[47].nic.mac1609_4 sentAcks:count 0
attr source org_car2x_veins_modules_mac_sigSentAck
scalar World.node[47].nic.mac1609_4 sentPackets:count 1
attr source org_car2x_veins_modules_mac_sigSentPacket
scalar World.node[47].nic.mac1609_4 collisions:count 0
attr source org_car2x_veins_modules_mac_sigCollision
scalar World.node[47].nic.mac1609_4 channelBusy:timeavg 0.99836530436792
attr source org_car2x_veins_modules_mac_sigChannelBusy
scalar World.node[57].appl.middleware.DenService transmission:count 10
attr source DenmSent
scalar World.node[57].appl.middleware.DenService reception:count 0
attr source DenmReceived
scalar World.node[57].nic.phy80211p busyTime 3.1287128712871e-05
scalar World.node[57].nic.mac1609_4 ReceivedUnicastPackets 0
scalar World.node[57].nic.mac1609_4 ReceivedBroadcasts 0
scalar World.node[57].nic.mac1609_4 SentPackets 1
scalar World.node[57].nic.mac1609_4 SentAcknowledgements 0
scalar World.node[57].nic.mac1609_4 RetriesExceeded 0
scalar World.node[57].nic.mac1609_4 SNIRLostPackets 0
scalar World.node[57].nic.mac1609_4 RXTXLostPackets 2911
scalar World.node[57].nic.mac1609_4 TotalLostPackets 2911
scalar World.node[57].nic.mac1609_4 DroppedPacketsInMac 0
scalar World.node[57].nic.mac1609_4 TooLittleTime 0
scalar World.node[57].nic.mac1609_4 TimesIntoBackoff 1
scalar World.node[57].nic.mac1609_4 SlotsBackoff 1
scalar World.node[57].nic.mac1609_4 NumInternalContention 0
scalar World.node[57].nic.mac1609_4 totalBusyTime 0.001896
scalar World.node[57].nic.mac1609_4 retriesExceeded:count 0
attr source org_car2x_veins_modules_mac_sigRetriesExceeded
scalar World.node[57].nic.mac1609_4 sentAcks:count 0
attr source org_car2x_veins_modules_mac_sigSentAck
scalar World.node[57].nic.mac1609_4 sentPackets:count 1
attr source org_car2x_veins_modules_mac_sigSentPacket
scalar World.node[57].nic.mac1609_4 collisions:count 0
attr source org_car2x_veins_modules_mac_sigCollision
scalar World.node[57].nic.mac1609_4 channelBusy:timeavg 0.99735045216399
attr source org_car2x_veins_modules_mac_sigChannelBusy
scalar World.node[73].appl.middleware.DenService transmission:count 0
attr source DenmSent
scalar World.node[73].appl.middleware.DenService reception:count 0
attr source DenmReceived
scalar World.node[73].nic.phy80211p busyTime 8.9397590361446e-05
scalar World.node[73].nic.mac1609_4 ReceivedUnicastPackets 0
scalar World.node[73].nic.mac1609_4 ReceivedBroadcasts 0
scalar World.node[73].nic.mac1609_4 SentPackets 1
scalar World.node[73].nic.mac1609_4 SentAcknowledgements 0
scalar World.node[73].nic.mac1609_4 RetriesExceeded 0
scalar World.node[73].nic.mac1609_4 SNIRLostPackets 0
scalar World.node[73].nic.mac1609_4 RXTXLostPackets 1854
scalar World.node[73].nic.mac1609_4 TotalLostPackets 1854
scalar World.node[73].nic.mac1609_4 DroppedPacketsInMac 0
scalar World.node[73].nic.mac1609_4 TooLittleTime 0
scalar World.node[73].nic.mac1609_4 TimesIntoBackoff 0
scalar World.node[73].nic.mac1609_4 SlotsBackoff 0
scalar World.node[73].nic.mac1609_4 NumInternalContention 0
scalar World.node[73].nic.mac1609_4 totalBusyTime 0.002968
scalar World.node[73].nic.mac1609_4 retriesExceeded:count 0
attr source org_car2x_veins_modules_mac_sigRetriesExceeded
scalar World.node[73].nic.mac1609_4 sentAcks:count 0
attr source org_car2x_veins_modules_mac_sigSentAck
scalar World.node[73].nic.mac1609_4 sentPackets:count 1
attr source org_car2x_veins_modules_mac_sigSentPacket
scalar World.node[73].nic.mac1609_4 collisions:count 0
attr source org_car2x_veins_modules_mac_sigCollision
scalar World.node[73].nic.mac1609_4 channelBusy:timeavg 0.99625908671105
attr source org_car2x_veins_modules_mac_sigChannelBusy
scalar World.node[43].appl.middleware.DenService transmission:count 0
attr source DenmSent
scalar World.node[43].appl.middleware.DenService reception:count 0
attr source DenmReceived
scalar World.node[43].nic.phy80211p busyTime 2.34451901566e-05
scalar World.node[43].nic.mac1609_4 ReceivedUnicastPackets 0
scalar World.node[43].nic.mac1609_4 ReceivedBroadcasts 0
scalar World.node[43].nic.mac1609_4 SentPackets 1
scalar World.node[43].nic.mac1609_4 SentAcknowledgements 0
scalar World.node[43].nic.mac1609_4 RetriesExceeded 0
scalar World.node[43].nic.mac1609_4 SNIRLostPackets 0
scalar World.node[43].nic.mac1609_4 RXTXLostPackets 4121
scalar World.node[43].nic.mac1609_4 TotalLostPackets 4121
scalar World.node[43].nic.mac1609_4 DroppedPacketsInMac 0
scalar World.node[43].nic.mac1609_4 TooLittleTime 0
scalar World.node[43].nic.mac1609_4 TimesIntoBackoff 0
scalar World.node[43].nic.mac1609_4 SlotsBackoff 0
scalar World.node[43].nic.mac1609_4 NumInternalContention 0
scalar World.node[43].nic.mac1609_4 totalBusyTime 0.002096
scalar World.node[43].nic.mac1609_4 retriesExceeded:count 0
attr source org_car2x_veins_modules_mac_sigRetriesExceeded
scalar World.node[43].nic.mac1609_4 sentAcks:count 0
attr source org_car2x_veins_modules_mac_sigSentAck
scalar World.node[43].nic.mac1609_4 sentPackets:count 1
attr source org_car2x_veins_modules_mac_sigSentPacket
scalar World.node[43].nic.mac1609_4 collisions:count 0
attr source org_car2x_veins_modules_mac_sigCollision
scalar World.node[43].nic.mac1609_4 channelBusy:timeavg 0.99784402522161
attr source org_car2x_veins_modules_mac_sigChannelBusy
scalar World.node[88].appl.middleware.DenService transmission:count 0
attr source DenmSent
scalar World.node[88].appl.middleware.DenService reception:count 38
attr source DenmReceived
scalar World.node[88].nic.phy80211p busyTime 0.022572834224599
scalar World.node[88].nic.mac1609_4 ReceivedUnicastPackets 0
scalar World.node[88].nic.mac1609_4 ReceivedBroadcasts 1060
scalar World.node[88].nic.mac1609_4 SentPackets 200
scalar World.node[88].nic.mac1609_4 SentAcknowledgements 0
scalar World.node[88].nic.mac1609_4 RetriesExceeded 0
scalar World.node[88].nic.mac1609_4 SNIRLostPackets 0
scalar World.node[88].nic.mac1609_4 RXTXLostPackets 0
scalar World.node[88].nic.mac1609_4 TotalLostPackets 0
scalar World.node[88].nic.mac1609_4 DroppedPacketsInMac 0
scalar World.node[88].nic.mac1609_4 TooLittleTime 0
scalar World.node[88].nic.mac1609_4 TimesIntoBackoff 208
scalar World.node[88].nic.mac1609_4 SlotsBackoff 1532
scalar World.node[88].nic.mac1609_4 NumInternalContention 0
scalar World.node[88].nic.mac1609_4 totalBusyTime 0.503976
scalar World.node[88].nic.mac1609_4 retriesExceeded:count 0
attr source org_car2x_veins_modules_mac_sigRetriesExceeded
scalar World.node[88].nic.mac1609_4 sentAcks:count 0
attr source org_car2x_veins_modules_mac_sigSentAck
scalar World.node[88].nic.mac1609_4 sentPackets:count 200
attr source org_car2x_veins_modules_mac_sigSentPacket
scalar World.node[88].nic.mac1609_4 collisions:count 0
attr source org_car2x_veins_modules_mac_sigCollision
scalar World.node[88].nic.mac1609_4 channelBusy:timeavg 0.026950588235294
attr source org_car2x_veins_modules_mac_sigChannelBusy
scalar World.node[80].appl.middleware.DenService transmission:count 190
attr source DenmSent
scalar World.node[80].appl.middleware.DenService reception:count 0
attr source DenmReceived
scalar World.node[80].nic.phy80211p busyTime 7.2852233676976e-05
scalar World.node[80].nic.mac1609_4 ReceivedUnicastPackets 0
scalar World.node[80].nic.mac1609_4 ReceivedBroadcasts 0
scalar World.node[80].nic.mac1609_4 SentPackets 1
scalar World.node[80].nic.mac1609_4 SentAcknowledgements 0
scalar World.node[80].nic.mac1609_4 RetriesExceeded 0
scalar World.node[80].nic.mac1609_4 SNIRLostPackets 0
scalar World.node[80].nic.mac1609_4 RXTXLostPackets 1801
scalar World.node[80].nic.mac1609_4 TotalLostPackets 1801
scalar World.node[80].nic.mac1609_4 DroppedPacketsInMac 0
scalar World.node[80].nic.mac1609_4 TooLittleTime 0
scalar World.node[80].nic.mac1609_4 TimesIntoBackoff 1
scalar World.node[80].nic.mac1609_4 SlotsBackoff 2
scalar World.node[80].nic.mac1609_4 NumInternalContention 0
scalar World.node[80].nic.mac1609_4 totalBusyTime 0.00212
scalar World.node[80].nic.mac1609_4 retriesExceeded:count 0
attr source org_car2x_veins_modules_mac_sigRetriesExceeded
scalar World.node[80].nic.mac1609_4 sentAcks:count 0
attr source org_car2x_veins_modules_mac_sigSentAck
scalar World.node[80].nic.mac1609_4 sentPackets:count 1
attr source org_car2x_veins_modules_mac_sigSentPacket
scalar World.node[80].nic.mac1609_4 collisions:count 0
attr source org_car2x_veins_modules_mac_sigCollision
scalar World.node[80].nic.mac1609_4 channelBusy:timeavg 0.99620775455766
attr source org_car2x_veins_modules_mac_sigChannelBusy
scalar World.node[62].appl.middleware.DenService transmission:count 501
attr source DenmSent
scalar World.node[62].appl.middleware.DenService reception:count 0
attr source DenmReceived
scalar World.node[62].nic.phy80211p busyTime 4.5581395348837e-05
scalar World.node[62].nic.mac1609_4 ReceivedUnicastPackets 0
scalar World.node[62].nic.mac1609_4 ReceivedBroadcasts 0
scalar World.node[62].nic.mac1609_4 SentPackets 1
scalar World.node[62].nic.mac1609_4 SentAcknowledgements 0
scalar World.node[62].nic.mac1609_4 RetriesExceeded 0
scalar World.node[62].nic.mac1609_4 SNIRLostPackets 0
scalar World.node[62].nic.mac1609_4 RXTXLostPackets 3174
scalar World.node[62].nic.mac1609_4 TotalLostPackets 3174
scalar World.node[62].nic.mac1609_4 DroppedPacketsInMac 0
scalar World.node[62].nic.mac1609_4 TooLittleTime 0
scalar World.node[62].nic.mac1609_4 TimesIntoBackoff 1
scalar World.node[62].nic.mac1609_4 SlotsBackoff 5
scalar World.node[62].nic.mac1609_4 NumInternalContention 0
scalar World.node[62].nic.mac1609_4 totalBusyTime 0.002744
scalar World.node[62].nic.mac1609_4 retriesExceeded:count 0
attr source org_car2x_veins_modules_mac_sigRetriesExceeded
scalar World.node[62].nic.mac1609_4 sentAcks:count 0
attr source org_car2x_veins_modules_mac_sigSentAck
scalar World.node[62].nic.mac1609_4 sentPackets:count 1
attr source org_car2x_veins_modules_mac_sigSentPacket
scalar World.node[62].nic.mac1609_4 collisions:count 0
attr source org_car2x_veins_modules_mac_sigCollision
scalar World.node[62].nic.mac1609_4 channelBusy:timeavg 0.99674562247179
attr source org_car2x_veins_modules_mac_sigChannelBusy
scalar World.node[69].appl.middleware.DenService transmission:count 412
attr source DenmSent
scalar World.node[69].appl.middleware.DenService reception:count 0
attr source DenmReceived
scalar World.node[69].nic.phy80211p busyTime 4.1325536062378e-05
scalar World.node[69].nic.mac1609_4 ReceivedUnicastPackets 0
scalar World.node[69].nic.mac1609_4 ReceivedBroadcasts 0
scalar World.node[69].nic.mac1609_4 SentPackets 1
scalar World.node[69].nic.mac1609_4 SentAcknowledgements 0
scalar World.node[69].nic.mac1609_4 RetriesExceeded 0
scalar World.node[69].nic.mac1609_4 SNIRLostPackets 0
scalar World.node[69].nic.mac1609_4 RXTXLostPackets 3027
scalar World.node[69].nic.mac1609_4 TotalLostPackets 3027
scalar World.node[69].nic.mac1609_4 DroppedPacketsInMac 0
scalar World.node[69].nic.mac1609_4 TooLittleTime 0
scalar World.node[69].nic.mac1609_4 TimesIntoBackoff 1
scalar World.node[69].nic.mac1609_4 SlotsBackoff 2
scalar World.node[69].nic.mac1609_4 NumInternalContention 0
scalar World.node[69].nic.mac1609_4 totalBusyTime 0.00212
scalar World.node[69].nic.mac1609_4 retriesExceeded:count 0
attr source org_car2x_veins_modules_mac_sigRetriesExceeded
scalar World.node[69].nic.mac1609_4 sentAcks:count 0
attr source org_car2x_veins_modules_mac_sigSentAck
scalar World.node[69].nic.mac1609_4 sentPackets:count 1
attr source org_car2x_veins_modules_mac_sigSentPacket
scalar World.node[69].nic.mac1609_4 collisions:count 0
attr source org_car2x_veins_modules_mac_sigCollision
scalar World.node[69].nic.mac1609_4 channelBusy:timeavg 0.99734871137296
attr source org_car2x_veins_modules_mac_sigChannelBusy
scalar World.node[82].appl.middleware.DenService transmission:count 272
attr source DenmSent
scalar World.node[82].appl.middleware.DenService reception:count 0
attr source DenmReceived
scalar World.node[82].nic.phy80211p busyTime 0.00010230563002681
scalar World.node[82].nic.mac1609_4 ReceivedUnicastPackets 0
scalar World.node[82].nic.mac1609_4 ReceivedBroadcasts 0
scalar World.node[82].nic.mac1609_4 SentPackets 1
scalar World.node[82].nic.mac1609_4 SentAcknowledgements 0
scalar World.node[82].nic.mac1609_4 RetriesExceeded 0
scalar World.node[82].nic.mac1609_4 SNIRLostPackets 0
scalar World.node[82].nic.mac1609_4 RXTXLostPackets 2491
scalar World.node[82].nic.mac1609_4 TotalLostPackets 2491
scalar World.node[82].nic.mac1609_4 DroppedPacketsInMac 0
scalar World.node[82].nic.mac1609_4 TooLittleTime 0
scalar World.node[82].nic.mac1609_4 TimesIntoBackoff 1
scalar World.node[82].nic.mac1609_4 SlotsBackoff 3
scalar World.node[82].nic.mac1609_4 NumInternalContention 0
scalar World.node[82].nic.mac1609_4 totalBusyTime 0.003816
scalar World.node[82].nic.mac1609_4 retriesExceeded:count 0
attr source org_car2x_veins_modules_mac_sigRetriesExceeded
scalar World.node[82].nic.mac1609_4 sentAcks:count 0
attr source org_car2x_veins_modules_mac_sigSentAck
scalar World.node[82].nic.mac1609_4 sentPackets:count 1
attr source org_car2x_veins_modules_mac_sigSentPacket
scalar World.node[82].nic.mac1609_4 collisions:count 0
attr source org_car2x_veins_modules_mac_sigCollision
scalar World.node[82].nic.mac1609_4 channelBusy:timeavg 0.9952381674874
attr source org_car2x_veins_modules_mac_sigChannelBusy
scalar World.node[91].appl.middleware.DenService transmission:count 210
attr source DenmSent
scalar World.node[91].appl.middleware.DenService reception:count 0
attr source DenmReceived
scalar World.node[91].nic.phy80211p busyTime 6.096463022508e-05
scalar World.node[91].nic.mac1609_4 ReceivedUnicastPackets 0
scalar World.node[91].nic.mac1609_4 ReceivedBroadcasts 0
scalar World.node[91].nic.mac1609_4 SentPackets 1
scalar World.node[91].nic.mac1609_4 SentAcknowledgements 0
scalar World.node[91].nic.mac1609_4 RetriesExceeded 0
scalar World.node[91].nic.mac1609_4 SNIRLostPackets 0
scalar World.node[91].nic.mac1609_4 RXTXLostPackets 2340
scalar World.node[91].nic.mac1609_4 TotalLostPackets 2340
scalar World.node[91].nic.mac1609_4 DroppedPacketsInMac 0
scalar World.node[91].nic.mac1609_4 TooLittleTime 0
scalar World.node[91].nic.mac1609_4 TimesIntoBackoff 1
scalar World.node[91].nic.mac1609_4 SlotsBackoff 3
scalar World.node[91].nic.mac1609_4 NumInternalContention 0
scalar World.node[91].nic.mac1609_4 totalBusyTime 0.001896
scalar World.node[91].nic.mac1609_4 retriesExceeded:count 0
attr source org_car2x_veins_modules_mac_sigRetriesExceeded
scalar World.node[91].nic.mac1609_4 sentAcks:count 0
attr source org_car2x_veins_modules_mac_sigSentAck
scalar World.node[91].nic.mac1609_4 sentPackets:count 1
attr source org_car2x_veins_modules_mac_sigSentPacket
scalar World.node[91].nic.mac1609_4 collisions:count 0
attr source org_car2x_veins_modules_mac_sigCollision
scalar World.node[91].nic.mac1609_4 channelBusy:timeavg 0.99650819140344
attr source org_car2x_veins_modules_mac_sigChannelBusy
scalar World.node[17].appl.middleware.DenService transmission:count 912
attr source DenmSent
scalar World.node[17].appl.middleware.DenService reception:count 0
attr source DenmReceived
scalar World.node[17].nic.phy80211p busyTime 3.0437903804738e-06
scalar World.node[17].nic.mac1609_4 ReceivedUnicastPackets 0
scalar World.node[17].nic.mac1609_4 ReceivedBroadcasts 0
scalar World.node[17].nic.mac1609_4 SentPackets 1
scalar World.node[17].nic.mac1609_4 SentAcknowledgements 0
scalar World.node[17].nic.mac1609_4 RetriesExceeded 0
scalar World.node[17].nic.mac1609_4 SNIRLostPackets 0
scalar World.node[17].nic.mac1609_4 RXTXLostPackets 6642
scalar World.node[17].nic.mac1609_4 TotalLostPackets 6642
scalar World.node[17].nic.mac1609_4 DroppedPacketsInMac 0
scalar World.node[17].nic.mac1609_4 TooLittleTime 0
scalar World.node[17].nic.mac1609_4 TimesIntoBackoff 1
scalar World.node[17].nic.mac1609_4 SlotsBackoff 3
scalar World.node[17].nic.mac1609_4 NumInternalContention 0
scalar World.node[17].nic.mac1609_4 totalBusyTime 0.000424
scalar World.node[17].nic.mac1609_4 retriesExceeded:count 0
attr source org_car2x_veins_modules_mac_sigRetriesExceeded
scalar World.node[17].nic.mac1609_4 sentAcks:count 0
attr source org_car2x_veins_modules_mac_sigSentAck
scalar World.node[17].nic.mac1609_4 sentPackets:count 1
attr source org_car2x_veins_modules_mac_sigSentPacket
scalar World.node[17].nic.mac1609_4 collisions:count 0
attr source org_car2x_veins_modules_mac_sigCollision
scalar World.node[17].nic.mac1609_4 channelBusy:timeavg 0.99902040215331
attr source org_car2x_veins_modules_mac_sigChannelBusy
scalar World.node[49].appl.middleware.DenService transmission:count 0
attr source DenmSent
[...]
attr source org_car2x_veins_modules_mac_sigRetriesExceeded
scalar World.node[516].nic.mac1609_4 sentAcks:count 0
attr source org_car2x_veins_modules_mac_sigSentAck
scalar World.node[516].nic.mac1609_4 sentPackets:count 1
attr source org_car2x_veins_modules_mac_sigSentPacket
scalar World.node[516].nic.mac1609_4 collisions:count 0
attr source org_car2x_veins_modules_mac_sigCollision
scalar World.node[516].nic.mac1609_4 channelBusy:timeavg 0.99550755390833
attr source org_car2x_veins_modules_mac_sigChannelBusy
scalar World.node[519].appl.middleware.DenService transmission:count 145
attr source DenmSent
scalar World.node[519].appl.middleware.DenService reception:count 0
attr source DenmReceived
scalar World.node[519].nic.phy80211p busyTime 8.6380784079381e-05
scalar World.node[519].nic.mac1609_4 ReceivedUnicastPackets 0
scalar World.node[519].nic.mac1609_4 ReceivedBroadcasts 0
scalar World.node[519].nic.mac1609_4 SentPackets 1
scalar World.node[519].nic.mac1609_4 SentAcknowledgements 0
scalar World.node[519].nic.mac1609_4 RetriesExceeded 0
scalar World.node[519].nic.mac1609_4 SNIRLostPackets 0
scalar World.node[519].nic.mac1609_4 RXTXLostPackets 1772
scalar World.node[519].nic.mac1609_4 TotalLostPackets 1772
scalar World.node[519].nic.mac1609_4 DroppedPacketsInMac 0
scalar World.node[519].nic.mac1609_4 TooLittleTime 0
scalar World.node[519].nic.mac1609_4 TimesIntoBackoff 1
scalar World.node[519].nic.mac1609_4 SlotsBackoff 5
scalar World.node[519].nic.mac1609_4 NumInternalContention 0
scalar World.node[519].nic.mac1609_4 totalBusyTime 0.00212
scalar World.node[519].nic.mac1609_4 retriesExceeded:count 0
attr source org_car2x_veins_modules_mac_sigRetriesExceeded
scalar World.node[519].nic.mac1609_4 sentAcks:count 0
attr source org_car2x_veins_modules_mac_sigSentAck
scalar World.node[519].nic.mac1609_4 sentPackets:count 1
attr source org_car2x_veins_modules_mac_sigSentPacket
scalar World.node[519].nic.mac1609_4 collisions:count 0
attr source org_car2x_veins_modules_mac_sigCollision
scalar World.node[519].nic.mac1609_4 channelBusy:timeavg 0.99505625788275
attr source org_car2x_veins_modules_mac_sigChannelBusy
scalar World.node[520].appl.middleware.DenService transmission:count 0
attr source DenmSent
scalar World.node[520].appl.middleware.DenService reception:count 0
attr source DenmReceived
scalar World.node[520].nic.phy80211p busyTime 0.00010805991258224
scalar World.node[520].nic.mac1609_4 ReceivedUnicastPackets 0
scalar World.node[520].nic.mac1609_4 ReceivedBroadcasts 0
scalar World.node[520].nic.mac1609_4 SentPackets 1
scalar World.node[520].nic.mac1609_4 SentAcknowledgements 0
scalar World.node[520].nic.mac1609_4 RetriesExceeded 0
scalar World.node[520].nic.mac1609_4 SNIRLostPackets 0
scalar World.node[520].nic.mac1609_4 RXTXLostPackets 1718
scalar World.node[520].nic.mac1609_4 TotalLostPackets 1718
scalar World.node[520].nic.mac1609_4 DroppedPacketsInMac 0
scalar World.node[520].nic.mac1609_4 TooLittleTime 0
scalar World.node[520].nic.mac1609_4 TimesIntoBackoff 0
scalar World.node[520].nic.mac1609_4 SlotsBackoff 0
scalar World.node[520].nic.mac1609_4 NumInternalContention 0
scalar World.node[520].nic.mac1609_4 totalBusyTime 0.002544
scalar World.node[520].nic.mac1609_4 retriesExceeded:count 0
attr source org_car2x_veins_modules_mac_sigRetriesExceeded
scalar World.node[520].nic.mac1609_4 sentAcks:count 0
attr source org_car2x_veins_modules_mac_sigSentAck
scalar World.node[520].nic.mac1609_4 sentPackets:count 1
attr source org_car2x_veins_modules_mac_sigSentPacket
scalar World.node[520].nic.mac1609_4 collisions:count 0
attr source org_car2x_veins_modules_mac_sigCollision
scalar World.node[520].nic.mac1609_4 channelBusy:timeavg 0.99389966649314
attr source org_car2x_veins_modules_mac_sigChannelBusy
scalar World.node[522].appl.middleware.DenService transmission:count 94
attr source DenmSent
scalar World.node[522].appl.middleware.DenService reception:count 0
attr source DenmReceived
scalar World.node[522].nic.phy80211p busyTime 0.00017357046387203
scalar World.node[522].nic.mac1609_4 ReceivedUnicastPackets 0
scalar World.node[522].nic.mac1609_4 ReceivedBroadcasts 0
scalar World.node[522].nic.mac1609_4 SentPackets 1
scalar World.node[522].nic.mac1609_4 SentAcknowledgements 0
scalar World.node[522].nic.mac1609_4 RetriesExceeded 0
scalar World.node[522].nic.mac1609_4 SNIRLostPackets 0
scalar World.node[522].nic.mac1609_4 RXTXLostPackets 1474
scalar World.node[522].nic.mac1609_4 TotalLostPackets 1474
scalar World.node[522].nic.mac1609_4 DroppedPacketsInMac 0
scalar World.node[522].nic.mac1609_4 TooLittleTime 0
scalar World.node[522].nic.mac1609_4 TimesIntoBackoff 1
scalar World.node[522].nic.mac1609_4 SlotsBackoff 4
scalar World.node[522].nic.mac1609_4 NumInternalContention 0
scalar World.node[522].nic.mac1609_4 totalBusyTime 0.003392
scalar World.node[522].nic.mac1609_4 retriesExceeded:count 0
attr source org_car2x_veins_modules_mac_sigRetriesExceeded
scalar World.node[522].nic.mac1609_4 sentAcks:count 0
attr source org_car2x_veins_modules_mac_sigSentAck
scalar World.node[522].nic.mac1609_4 sentPackets:count 1
attr source org_car2x_veins_modules_mac_sigSentPacket
scalar World.node[522].nic.mac1609_4 collisions:count 0
attr source org_car2x_veins_modules_mac_sigCollision
scalar World.node[522].nic.mac1609_4 channelBusy:timeavg 0.99269966892606
attr source org_car2x_veins_modules_mac_sigChannelBusy
scalar World.node[523].appl.middleware.DenService transmission:count 50
attr source DenmSent
scalar World.node[523].appl.middleware.DenService reception:count 0
attr source DenmReceived
scalar World.node[523].nic.phy80211p busyTime 0.00021824037275786
scalar World.node[523].nic.mac1609_4 ReceivedUnicastPackets 0
scalar World.node[523].nic.mac1609_4 ReceivedBroadcasts 0
scalar World.node[523].nic.mac1609_4 SentPackets 1
scalar World.node[523].nic.mac1609_4 SentAcknowledgements 0
scalar World.node[523].nic.mac1609_4 RetriesExceeded 0
scalar World.node[523].nic.mac1609_4 SNIRLostPackets 0
scalar World.node[523].nic.mac1609_4 RXTXLostPackets 1186
scalar World.node[523].nic.mac1609_4 TotalLostPackets 1186
scalar World.node[523].nic.mac1609_4 DroppedPacketsInMac 0
scalar World.node[523].nic.mac1609_4 TooLittleTime 0
scalar World.node[523].nic.mac1609_4 TimesIntoBackoff 1
scalar World.node[523].nic.mac1609_4 SlotsBackoff 2
scalar World.node[523].nic.mac1609_4 NumInternalContention 0
scalar World.node[523].nic.mac1609_4 totalBusyTime 0.003392
scalar World.node[523].nic.mac1609_4 retriesExceeded:count 0
attr source org_car2x_veins_modules_mac_sigRetriesExceeded
scalar World.node[523].nic.mac1609_4 sentAcks:count 0
attr source org_car2x_veins_modules_mac_sigSentAck
scalar World.node[523].nic.mac1609_4 sentPackets:count 1
attr source org_car2x_veins_modules_mac_sigSentPacket
scalar World.node[523].nic.mac1609_4 collisions:count 0
attr source org_car2x_veins_modules_mac_sigCollision
scalar World.node[523].nic.mac1609_4 channelBusy:timeavg 0.99058519640077
attr source org_car2x_veins_modules_mac_sigChannelBusy
scalar World.node[524].appl.middleware.DenService transmission:count 39
attr source DenmSent
scalar World.node[524].appl.middleware.DenService reception:count 0
attr source DenmReceived
scalar World.node[524].nic.phy80211p busyTime 0.0004654443381906
scalar World.node[524].nic.mac1609_4 ReceivedUnicastPackets 0
scalar World.node[524].nic.mac1609_4 ReceivedBroadcasts 0
scalar World.node[524].nic.mac1609_4 SentPackets 1
scalar World.node[524].nic.mac1609_4 SentAcknowledgements 0
scalar World.node[524].nic.mac1609_4 RetriesExceeded 0
scalar World.node[524].nic.mac1609_4 SNIRLostPackets 0
scalar World.node[524].nic.mac1609_4 RXTXLostPackets 1056
scalar World.node[524].nic.mac1609_4 TotalLostPackets 1056
scalar World.node[524].nic.mac1609_4 DroppedPacketsInMac 0
scalar World.node[524].nic.mac1609_4 TooLittleTime 0
scalar World.node[524].nic.mac1609_4 TimesIntoBackoff 1
scalar World.node[524].nic.mac1609_4 SlotsBackoff 0
scalar World.node[524].nic.mac1609_4 NumInternalContention 0
scalar World.node[524].nic.mac1609_4 totalBusyTime 0.006536
scalar World.node[524].nic.mac1609_4 retriesExceeded:count 0
attr source org_car2x_veins_modules_mac_sigRetriesExceeded
scalar World.node[524].nic.mac1609_4 sentAcks:count 0
attr source org_car2x_veins_modules_mac_sigSentAck
scalar World.node[524].nic.mac1609_4 sentPackets:count 1
attr source org_car2x_veins_modules_mac_sigSentPacket
scalar World.node[524].nic.mac1609_4 collisions:count 0
attr source org_car2x_veins_modules_mac_sigCollision
scalar World.node[524].nic.mac1609_4 channelBusy:timeavg 0.98771973969765
attr source org_car2x_veins_modules_mac_sigChannelBusy
scalar World.node[527].appl.middleware.DenService transmission:count 0
attr source DenmSent
scalar World.node[527].appl.middleware.DenService reception:count 0
attr source DenmReceived
scalar World.node[527].nic.phy80211p busyTime 0.00026112406351828
scalar World.node[527].nic.mac1609_4 ReceivedUnicastPackets 0
scalar World.node[527].nic.mac1609_4 ReceivedBroadcasts 0
scalar World.node[527].nic.mac1609_4 SentPackets 1
scalar World.node[527].nic.mac1609_4 SentAcknowledgements 0
scalar World.node[527].nic.mac1609_4 RetriesExceeded 0
scalar World.node[527].nic.mac1609_4 SNIRLostPackets 0
scalar World.node[527].nic.mac1609_4 RXTXLostPackets 729
scalar World.node[527].nic.mac1609_4 TotalLostPackets 729
scalar World.node[527].nic.mac1609_4 DroppedPacketsInMac 0
scalar World.node[527].nic.mac1609_4 TooLittleTime 0
scalar World.node[527].nic.mac1609_4 TimesIntoBackoff 0
scalar World.node[527].nic.mac1609_4 SlotsBackoff 0
scalar World.node[527].nic.mac1609_4 NumInternalContention 0
scalar World.node[527].nic.mac1609_4 totalBusyTime 0.002544
scalar World.node[527].nic.mac1609_4 retriesExceeded:count 0
attr source org_car2x_veins_modules_mac_sigRetriesExceeded
scalar World.node[527].nic.mac1609_4 sentAcks:count 0
attr source org_car2x_veins_modules_mac_sigSentAck
scalar World.node[527].nic.mac1609_4 sentPackets:count 1
attr source org_car2x_veins_modules_mac_sigSentPacket
scalar World.node[527].nic.mac1609_4 collisions:count 0
attr source org_car2x_veins_modules_mac_sigCollision
scalar World.node[527].nic.mac1609_4 channelBusy:timeavg 0.98730873365493
attr source org_car2x_veins_modules_mac_sigChannelBusy
scalar World.node[526].appl.middleware.DenService transmission:count 4
attr source DenmSent
scalar World.node[526].appl.middleware.DenService reception:count 0
attr source DenmReceived
scalar World.node[526].nic.phy80211p busyTime 0.00032022996963562
scalar World.node[526].nic.mac1609_4 ReceivedUnicastPackets 0
scalar World.node[526].nic.mac1609_4 ReceivedBroadcasts 0
scalar World.node[526].nic.mac1609_4 SentPackets 1
scalar World.node[526].nic.mac1609_4 SentAcknowledgements 0
scalar World.node[526].nic.mac1609_4 RetriesExceeded 0
scalar World.node[526].nic.mac1609_4 SNIRLostPackets 0
scalar World.node[526].nic.mac1609_4 RXTXLostPackets 783
scalar World.node[526].nic.mac1609_4 TotalLostPackets 783
scalar World.node[526].nic.mac1609_4 DroppedPacketsInMac 0
scalar World.node[526].nic.mac1609_4 TooLittleTime 0
scalar World.node[526].nic.mac1609_4 TimesIntoBackoff 0
scalar World.node[526].nic.mac1609_4 SlotsBackoff 0
scalar World.node[526].nic.mac1609_4 NumInternalContention 0
scalar World.node[526].nic.mac1609_4 totalBusyTime 0.003344
scalar World.node[526].nic.mac1609_4 retriesExceeded:count 0
attr source org_car2x_veins_modules_mac_sigRetriesExceeded
scalar World.node[526].nic.mac1609_4 sentAcks:count 0
attr source org_car2x_veins_modules_mac_sigSentAck
scalar World.node[526].nic.mac1609_4 sentPackets:count 1
attr source org_car2x_veins_modules_mac_sigSentPacket
scalar World.node[526].nic.mac1609_4 collisions:count 0
attr source org_car2x_veins_modules_mac_sigCollision
scalar World.node[526].nic.mac1609_4 channelBusy:timeavg 0.98715581318256
attr source org_car2x_veins_modules_mac_sigChannelBusy
scalar World.node[525].appl.middleware.DenService transmission:count 0
attr source DenmSent
scalar World.node[525].appl.middleware.DenService reception:count 0
attr source DenmReceived
scalar World.node[525].nic.phy80211p busyTime 0.00034071629605773
scalar World.node[525].nic.mac1609_4 ReceivedUnicastPackets 0
scalar World.node[525].nic.mac1609_4 ReceivedBroadcasts 0
scalar World.node[525].nic.mac1609_4 SentPackets 1
scalar World.node[525].nic.mac1609_4 SentAcknowledgements 0
scalar World.node[525].nic.mac1609_4 RetriesExceeded 0
scalar World.node[525].nic.mac1609_4 SNIRLostPackets 0
scalar World.node[525].nic.mac1609_4 RXTXLostPackets 790
scalar World.node[525].nic.mac1609_4 TotalLostPackets 790
scalar World.node[525].nic.mac1609_4 DroppedPacketsInMac 0
scalar World.node[525].nic.mac1609_4 TooLittleTime 0
scalar World.node[525].nic.mac1609_4 TimesIntoBackoff 0
scalar World.node[525].nic.mac1609_4 SlotsBackoff 0
scalar World.node[525].nic.mac1609_4 NumInternalContention 0
scalar World.node[525].nic.mac1609_4 totalBusyTime 0.003592
scalar World.node[525].nic.mac1609_4 retriesExceeded:count 0
attr source org_car2x_veins_modules_mac_sigRetriesExceeded
scalar World.node[525].nic.mac1609_4 sentAcks:count 0
attr source org_car2x_veins_modules_mac_sigSentAck
scalar World.node[525].nic.mac1609_4 sentPackets:count 1
attr source org_car2x_veins_modules_mac_sigSentPacket
scalar World.node[525].nic.mac1609_4 collisions:count 0
attr source org_car2x_veins_modules_mac_sigCollision
scalar World.node[525].nic.mac1609_4 channelBusy:timeavg 0.98484680101462
attr source org_car2x_veins_modules_mac_sigChannelBusy
scalar World.node[529].appl.middleware.DenService transmission:count 0
attr source DenmSent
scalar World.node[529].appl.middleware.DenService reception:count 0
attr source DenmReceived
scalar World.node[529].nic.phy80211p busyTime 0.00051845660839005
scalar World.node[529].nic.mac1609_4 ReceivedUnicastPackets 0
scalar World.node[529].nic.mac1609_4 ReceivedBroadcasts 0
scalar World.node[529].nic.mac1609_4 SentPackets 1
scalar World.node[529].nic.mac1609_4 SentAcknowledgements 0
scalar World.node[529].nic.mac1609_4 RetriesExceeded 0
scalar World.node[529].nic.mac1609_4 SNIRLostPackets 0
scalar World.node[529].nic.mac1609_4 RXTXLostPackets 490
scalar World.node[529].nic.mac1609_4 TotalLostPackets 490
scalar World.node[529].nic.mac1609_4 DroppedPacketsInMac 0
scalar World.node[529].nic.mac1609_4 TooLittleTime 0
scalar World.node[529].nic.mac1609_4 TimesIntoBackoff 0
scalar World.node[529].nic.mac1609_4 SlotsBackoff 0
scalar World.node[529].nic.mac1609_4 NumInternalContention 0
scalar World.node[529].nic.mac1609_4 totalBusyTime 0.003392
scalar World.node[529].nic.mac1609_4 retriesExceeded:count 0
attr source org_car2x_veins_modules_mac_sigRetriesExceeded
scalar World.node[529].nic.mac1609_4 sentAcks:count 0
attr source org_car2x_veins_modules_mac_sigSentAck
scalar World.node[529].nic.mac1609_4 sentPackets:count 1
attr source org_car2x_veins_modules_mac_sigSentPacket
scalar World.node[529].nic.mac1609_4 collisions:count 0
attr source org_car2x_veins_modules_mac_sigCollision
scalar World.node[529].nic.mac1609_4 channelBusy:timeavg 0.97744389304397
attr source org_car2x_veins_modules_mac_sigChannelBusy
scalar World.node[528].appl.middleware.DenService transmission:count 0
attr source DenmSent
scalar World.node[528].appl.middleware.DenService reception:count 0
attr source DenmReceived
scalar World.node[528].nic.phy80211p busyTime 0.00055896619752351
scalar World.node[528].nic.mac1609_4 ReceivedUnicastPackets 0
scalar World.node[528].nic.mac1609_4 ReceivedBroadcasts 0
scalar World.node[528].nic.mac1609_4 SentPackets 1
scalar World.node[528].nic.mac1609_4 SentAcknowledgements 0
scalar World.node[528].nic.mac1609_4 RetriesExceeded 0
scalar World.node[528].nic.mac1609_4 SNIRLostPackets 0
scalar World.node[528].nic.mac1609_4 RXTXLostPackets 562
scalar World.node[528].nic.mac1609_4 TotalLostPackets 562
scalar World.node[528].nic.mac1609_4 DroppedPacketsInMac 0
scalar World.node[528].nic.mac1609_4 TooLittleTime 0
scalar World.node[528].nic.mac1609_4 TimesIntoBackoff 0
scalar World.node[528].nic.mac1609_4 SlotsBackoff 0
scalar World.node[528].nic.mac1609_4 NumInternalContention 0
scalar World.node[528].nic.mac1609_4 totalBusyTime 0.004216
scalar World.node[528].nic.mac1609_4 retriesExceeded:count 0
attr source org_car2x_veins_modules_mac_sigRetriesExceeded
scalar World.node[528].nic.mac1609_4 sentAcks:count 0
attr source org_car2x_veins_modules_mac_sigSentAck
scalar World.node[528].nic.mac1609_4 sentPackets:count 1
attr source org_car2x_veins_modules_mac_sigSentPacket
scalar World.node[528].nic.mac1609_4 collisions:count 0
attr source org_car2x_veins_modules_mac_sigCollision
scalar World.node[528].nic.mac1609_4 channelBusy:timeavg 0.97567768119272
attr source org_car2x_veins_modules_mac_sigChannelBusy
scalar World.node[530].appl.middleware.DenService transmission:count 0
attr source DenmSent
scalar World.node[530].appl.middleware.DenService reception:count 0
attr source DenmReceived
scalar World.node[530].nic.phy80211p busyTime 0.00079075478262883
scalar World.node[530].nic.mac1609_4 ReceivedUnicastPackets 0
scalar World.node[530].nic.mac1609_4 ReceivedBroadcasts 0
scalar World.node[530].nic.mac1609_4 SentPackets 1
scalar World.node[530].nic.mac1609_4 SentAcknowledgements 0
scalar World.node[530].nic.mac1609_4 RetriesExceeded 0
scalar World.node[530].nic.mac1609_4 SNIRLostPackets 0
scalar World.node[530].nic.mac1609_4 RXTXLostPackets 339
scalar World.node[530].nic.mac1609_4 TotalLostPackets 339
scalar World.node[530].nic.mac1609_4 DroppedPacketsInMac 0
scalar World.node[530].nic.mac1609_4 TooLittleTime 0
scalar World.node[530].nic.mac1609_4 TimesIntoBackoff 0
scalar World.node[530].nic.mac1609_4 SlotsBackoff 0
scalar World.node[530].nic.mac1609_4 NumInternalContention 0
scalar World.node[530].nic.mac1609_4 totalBusyTime 0.003592
scalar World.node[530].nic.mac1609_4 retriesExceeded:count 0
attr source org_car2x_veins_modules_mac_sigRetriesExceeded
scalar World.node[530].nic.mac1609_4 sentAcks:count 0
attr source org_car2x_veins_modules_mac_sigSentAck
scalar World.node[530].nic.mac1609_4 sentPackets:count 1
attr source org_car2x_veins_modules_mac_sigSentPacket
scalar World.node[530].nic.mac1609_4 collisions:count 0
attr source org_car2x_veins_modules_mac_sigCollision
scalar World.node[530].nic.mac1609_4 channelBusy:timeavg 0.96480316456541
attr source org_car2x_veins_modules_mac_sigChannelBusy
scalar World.node[531].appl.middleware.DenService transmission:count 0
attr source DenmSent
scalar World.node[531].appl.middleware.DenService reception:count 0
attr source DenmReceived
scalar World.node[531].nic.phy80211p busyTime 0.0023120642587832
scalar World.node[531].nic.mac1609_4 ReceivedUnicastPackets 0
scalar World.node[531].nic.mac1609_4 ReceivedBroadcasts 0
scalar World.node[531].nic.mac1609_4 SentPackets 1
scalar World.node[531].nic.mac1609_4 SentAcknowledgements 0
scalar World.node[531].nic.mac1609_4 RetriesExceeded 0
scalar World.node[531].nic.mac1609_4 SNIRLostPackets 0
scalar World.node[531].nic.mac1609_4 RXTXLostPackets 168
scalar World.node[531].nic.mac1609_4 TotalLostPackets 168
scalar World.node[531].nic.mac1609_4 DroppedPacketsInMac 0
scalar World.node[531].nic.mac1609_4 TooLittleTime 0
scalar World.node[531].nic.mac1609_4 TimesIntoBackoff 0
scalar World.node[531].nic.mac1609_4 SlotsBackoff 0
scalar World.node[531].nic.mac1609_4 NumInternalContention 0
scalar World.node[531].nic.mac1609_4 totalBusyTime 0.005416
scalar World.node[531].nic.mac1609_4 retriesExceeded:count 0
attr source org_car2x_veins_modules_mac_sigRetriesExceeded
scalar World.node[531].nic.mac1609_4 sentAcks:count 0
attr source org_car2x_veins_modules_mac_sigSentAck
scalar World.node[531].nic.mac1609_4 sentPackets:count 1
attr source org_car2x_veins_modules_mac_sigSentPacket
scalar World.node[531].nic.mac1609_4 collisions:count 0
attr source org_car2x_veins_modules_mac_sigCollision
scalar World.node[531].nic.mac1609_4 channelBusy:timeavg 0.93081831686344
attr source org_car2x_veins_modules_mac_sigChannelBusy

